# Generated by pormake.
# Topology crs, (6)-cn, num edge types: 1
# Building blocks:
#     Node 0, Type 0, BuildingBlock: N152, # of connection points: 6
#     Node 1, Type 0, BuildingBlock: N152, # of connection points: 6
#     Node 2, Type 0, BuildingBlock: N152, # of connection points: 6
#     Node 3, Type 0, BuildingBlock: N152, # of connection points: 6
#     Node 4, Type 0, BuildingBlock: N152, # of connection points: 6
#     Node 5, Type 0, BuildingBlock: N152, # of connection points: 6
#     Node 6, Type 0, BuildingBlock: N152, # of connection points: 6
#     Node 7, Type 0, BuildingBlock: N152, # of connection points: 6
#     Node 8, Type 0, BuildingBlock: N152, # of connection points: 6
#     Node 9, Type 0, BuildingBlock: N152, # of connection points: 6
#     Node 10, Type 0, BuildingBlock: N152, # of connection points: 6
#     Node 11, Type 0, BuildingBlock: N152, # of connection points: 6
#     Node 12, Type 0, BuildingBlock: N152, # of connection points: 6
#     Node 13, Type 0, BuildingBlock: N152, # of connection points: 6
#     Node 14, Type 0, BuildingBlock: N152, # of connection points: 6
#     Node 15, Type 0, BuildingBlock: N152, # of connection points: 6
#     Edge 16, Type (0, 0), BuildingBlock: N#COC(=C[Fr])C1=C(OC#N)C(C#C[Fr])=C1OC#N, # of connection points: 2
#     Edge 17, Type (0, 0), BuildingBlock: N#COC(=C[Fr])C1=C(OC#N)C(C#C[Fr])=C1OC#N, # of connection points: 2
#     Edge 18, Type (0, 0), BuildingBlock: N#COC(=C[Fr])C1=C(OC#N)C(C#C[Fr])=C1OC#N, # of connection points: 2
#     Edge 19, Type (0, 0), BuildingBlock: N#COC(=C[Fr])C1=C(OC#N)C(C#C[Fr])=C1OC#N, # of connection points: 2
#     Edge 20, Type (0, 0), BuildingBlock: N#COC(=C[Fr])C1=C(OC#N)C(C#C[Fr])=C1OC#N, # of connection points: 2
#     Edge 21, Type (0, 0), BuildingBlock: N#COC(=C[Fr])C1=C(OC#N)C(C#C[Fr])=C1OC#N, # of connection points: 2
#     Edge 22, Type (0, 0), BuildingBlock: N#COC(=C[Fr])C1=C(OC#N)C(C#C[Fr])=C1OC#N, # of connection points: 2
#     Edge 23, Type (0, 0), BuildingBlock: N#COC(=C[Fr])C1=C(OC#N)C(C#C[Fr])=C1OC#N, # of connection points: 2
#     Edge 24, Type (0, 0), BuildingBlock: N#COC(=C[Fr])C1=C(OC#N)C(C#C[Fr])=C1OC#N, # of connection points: 2
#     Edge 25, Type (0, 0), BuildingBlock: N#COC(=C[Fr])C1=C(OC#N)C(C#C[Fr])=C1OC#N, # of connection points: 2
#     Edge 26, Type (0, 0), BuildingBlock: N#COC(=C[Fr])C1=C(OC#N)C(C#C[Fr])=C1OC#N, # of connection points: 2
#     Edge 27, Type (0, 0), BuildingBlock: N#COC(=C[Fr])C1=C(OC#N)C(C#C[Fr])=C1OC#N, # of connection points: 2
#     Edge 28, Type (0, 0), BuildingBlock: N#COC(=C[Fr])C1=C(OC#N)C(C#C[Fr])=C1OC#N, # of connection points: 2
#     Edge 29, Type (0, 0), BuildingBlock: N#COC(=C[Fr])C1=C(OC#N)C(C#C[Fr])=C1OC#N, # of connection points: 2
#     Edge 30, Type (0, 0), BuildingBlock: N#COC(=C[Fr])C1=C(OC#N)C(C#C[Fr])=C1OC#N, # of connection points: 2
#     Edge 31, Type (0, 0), BuildingBlock: N#COC(=C[Fr])C1=C(OC#N)C(C#C[Fr])=C1OC#N, # of connection points: 2
#     Edge 32, Type (0, 0), BuildingBlock: N#COC(=C[Fr])C1=C(OC#N)C(C#C[Fr])=C1OC#N, # of connection points: 2
#     Edge 33, Type (0, 0), BuildingBlock: N#COC(=C[Fr])C1=C(OC#N)C(C#C[Fr])=C1OC#N, # of connection points: 2
#     Edge 34, Type (0, 0), BuildingBlock: N#COC(=C[Fr])C1=C(OC#N)C(C#C[Fr])=C1OC#N, # of connection points: 2
#     Edge 35, Type (0, 0), BuildingBlock: N#COC(=C[Fr])C1=C(OC#N)C(C#C[Fr])=C1OC#N, # of connection points: 2
#     Edge 36, Type (0, 0), BuildingBlock: N#COC(=C[Fr])C1=C(OC#N)C(C#C[Fr])=C1OC#N, # of connection points: 2
#     Edge 37, Type (0, 0), BuildingBlock: N#COC(=C[Fr])C1=C(OC#N)C(C#C[Fr])=C1OC#N, # of connection points: 2
#     Edge 38, Type (0, 0), BuildingBlock: N#COC(=C[Fr])C1=C(OC#N)C(C#C[Fr])=C1OC#N, # of connection points: 2
#     Edge 39, Type (0, 0), BuildingBlock: N#COC(=C[Fr])C1=C(OC#N)C(C#C[Fr])=C1OC#N, # of connection points: 2
#     Edge 40, Type (0, 0), BuildingBlock: N#COC(=C[Fr])C1=C(OC#N)C(C#C[Fr])=C1OC#N, # of connection points: 2
#     Edge 41, Type (0, 0), BuildingBlock: N#COC(=C[Fr])C1=C(OC#N)C(C#C[Fr])=C1OC#N, # of connection points: 2
#     Edge 42, Type (0, 0), BuildingBlock: N#COC(=C[Fr])C1=C(OC#N)C(C#C[Fr])=C1OC#N, # of connection points: 2
#     Edge 43, Type (0, 0), BuildingBlock: N#COC(=C[Fr])C1=C(OC#N)C(C#C[Fr])=C1OC#N, # of connection points: 2
#     Edge 44, Type (0, 0), BuildingBlock: N#COC(=C[Fr])C1=C(OC#N)C(C#C[Fr])=C1OC#N, # of connection points: 2
#     Edge 45, Type (0, 0), BuildingBlock: N#COC(=C[Fr])C1=C(OC#N)C(C#C[Fr])=C1OC#N, # of connection points: 2
#     Edge 46, Type (0, 0), BuildingBlock: N#COC(=C[Fr])C1=C(OC#N)C(C#C[Fr])=C1OC#N, # of connection points: 2
#     Edge 47, Type (0, 0), BuildingBlock: N#COC(=C[Fr])C1=C(OC#N)C(C#C[Fr])=C1OC#N, # of connection points: 2
#     Edge 48, Type (0, 0), BuildingBlock: N#COC(=C[Fr])C1=C(OC#N)C(C#C[Fr])=C1OC#N, # of connection points: 2
#     Edge 49, Type (0, 0), BuildingBlock: N#COC(=C[Fr])C1=C(OC#N)C(C#C[Fr])=C1OC#N, # of connection points: 2
#     Edge 50, Type (0, 0), BuildingBlock: N#COC(=C[Fr])C1=C(OC#N)C(C#C[Fr])=C1OC#N, # of connection points: 2
#     Edge 51, Type (0, 0), BuildingBlock: N#COC(=C[Fr])C1=C(OC#N)C(C#C[Fr])=C1OC#N, # of connection points: 2
#     Edge 52, Type (0, 0), BuildingBlock: N#COC(=C[Fr])C1=C(OC#N)C(C#C[Fr])=C1OC#N, # of connection points: 2
#     Edge 53, Type (0, 0), BuildingBlock: N#COC(=C[Fr])C1=C(OC#N)C(C#C[Fr])=C1OC#N, # of connection points: 2
#     Edge 54, Type (0, 0), BuildingBlock: N#COC(=C[Fr])C1=C(OC#N)C(C#C[Fr])=C1OC#N, # of connection points: 2
#     Edge 55, Type (0, 0), BuildingBlock: N#COC(=C[Fr])C1=C(OC#N)C(C#C[Fr])=C1OC#N, # of connection points: 2
#     Edge 56, Type (0, 0), BuildingBlock: N#COC(=C[Fr])C1=C(OC#N)C(C#C[Fr])=C1OC#N, # of connection points: 2
#     Edge 57, Type (0, 0), BuildingBlock: N#COC(=C[Fr])C1=C(OC#N)C(C#C[Fr])=C1OC#N, # of connection points: 2
#     Edge 58, Type (0, 0), BuildingBlock: N#COC(=C[Fr])C1=C(OC#N)C(C#C[Fr])=C1OC#N, # of connection points: 2
#     Edge 59, Type (0, 0), BuildingBlock: N#COC(=C[Fr])C1=C(OC#N)C(C#C[Fr])=C1OC#N, # of connection points: 2
#     Edge 60, Type (0, 0), BuildingBlock: N#COC(=C[Fr])C1=C(OC#N)C(C#C[Fr])=C1OC#N, # of connection points: 2
#     Edge 61, Type (0, 0), BuildingBlock: N#COC(=C[Fr])C1=C(OC#N)C(C#C[Fr])=C1OC#N, # of connection points: 2
#     Edge 62, Type (0, 0), BuildingBlock: N#COC(=C[Fr])C1=C(OC#N)C(C#C[Fr])=C1OC#N, # of connection points: 2
#     Edge 63, Type (0, 0), BuildingBlock: N#COC(=C[Fr])C1=C(OC#N)C(C#C[Fr])=C1OC#N, # of connection points: 2
# Relax obj value: 0.447
# Max RMSD: 0.322
# Mean RMSD: 0.271
data_N#COC(=C[Fr])C1=C(OC#N)C(C#C[Fr])=C1OC#N_crs_N152
_symmetry_space_group_name_H-M    P1
_symmetry_Int_Tables_number       1
_symmetry_cell_setting            triclinic
loop_
_symmetry_equiv_pos_as_xyz
'x, y, z'
_cell_length_a     38.992
_cell_length_b     44.626
_cell_length_c     41.507
_cell_angle_alpha  85.881
_cell_angle_beta   85.126
_cell_angle_gamma  79.695
loop_
_atom_site_label
_atom_site_type_symbol
_atom_site_fract_x
_atom_site_fract_y
_atom_site_fract_z
_atom_type_partial_charge
Dy0 Dy 0.24233 0.00962 0.23378 0.0
Dy1 Dy 0.32411 0.04098 0.27797 0.0
C2 C 0.33086 0.97880 0.24057 0.0
C3 C 0.21842 0.01372 0.17230 0.0
C4 C 0.30133 0.05340 0.20066 0.0
C5 C 0.23558 0.07179 0.27117 0.0
C6 C 0.34802 0.03687 0.33944 0.0
C7 C 0.26511 0.99719 0.31109 0.0
O8 O 0.34728 0.99373 0.25607 0.0
O9 O 0.29892 0.98556 0.23554 0.0
O10 O 0.20575 0.03416 0.19105 0.0
O11 O 0.24072 0.99106 0.18037 0.0
O12 O 0.27387 0.04210 0.20287 0.0
O13 O 0.32217 0.05166 0.22206 0.0
O14 O 0.21917 0.05687 0.25568 0.0
O15 O 0.26752 0.06503 0.27620 0.0
O16 O 0.36069 0.01644 0.32069 0.0
O17 O 0.32572 0.05953 0.33138 0.0
O18 O 0.29257 0.00849 0.30887 0.0
O19 O 0.24427 0.99893 0.28969 0.0
Dy20 Dy 0.05230 0.81146 0.77673 0.0
Dy21 Dy 0.01047 0.74136 0.73547 0.0
C22 C 0.08185 0.73280 0.77214 0.0
C23 C 0.04908 0.83464 0.83734 0.0
C24 C 0.99752 0.76470 0.81200 0.0
C25 C 0.98092 0.82002 0.74005 0.0
C26 C 0.01369 0.71817 0.67486 0.0
C27 C 0.06525 0.78812 0.70020 0.0
O28 O 0.06348 0.71905 0.75737 0.0
O29 O 0.07622 0.76098 0.77632 0.0
O30 O 0.02635 0.84623 0.81855 0.0
O31 O 0.07377 0.81360 0.82967 0.0
O32 O 0.01249 0.78755 0.80885 0.0
O33 O 0.99813 0.74581 0.79126 0.0
O34 O 0.99990 0.83376 0.75482 0.0
O35 O 0.98655 0.79183 0.73588 0.0
O36 O 0.03642 0.70658 0.69365 0.0
O37 O 0.98901 0.73921 0.68252 0.0
O38 O 0.05028 0.76526 0.70334 0.0
O39 O 0.06464 0.80700 0.72093 0.0
Dy40 Dy 0.31048 0.78323 0.52370 0.0
Dy41 Dy 0.22750 0.74994 0.48354 0.0
C42 C 0.22282 0.78326 0.55086 0.0
C43 C 0.33377 0.83851 0.52251 0.0
C44 C 0.24916 0.82031 0.47377 0.0
C45 C 0.31516 0.74991 0.45638 0.0
C46 C 0.20421 0.69466 0.48473 0.0
C47 C 0.28882 0.71287 0.53347 0.0
O48 O 0.20588 0.77070 0.53335 0.0
O49 O 0.25460 0.78551 0.54581 0.0
O50 O 0.34587 0.82069 0.50089 0.0
O51 O 0.31234 0.83214 0.54517 0.0
O52 O 0.27722 0.81561 0.48762 0.0
O53 O 0.22850 0.80209 0.47370 0.0
O54 O 0.33210 0.76247 0.47389 0.0
O55 O 0.28339 0.74766 0.46144 0.0
O56 O 0.19211 0.71248 0.50635 0.0
O57 O 0.22564 0.70103 0.46207 0.0
O58 O 0.26076 0.71756 0.51962 0.0
O59 O 0.30949 0.73108 0.53354 0.0
Dy60 Dy 0.04044 0.05340 0.98109 0.0
Dy61 Dy 0.99671 0.97912 0.02973 0.0
C62 C 0.04419 0.97758 0.96185 0.0
C63 C 0.10358 0.07412 0.97895 0.0
C64 C 0.07592 0.99822 0.03601 0.0
C65 C 0.99296 0.05493 0.04897 0.0
C66 C 0.93357 0.95840 0.03187 0.0
C67 C 0.96123 0.03430 0.97481 0.0
O68 O 0.02737 0.96206 0.98125 0.0
O69 O 0.04608 0.00524 0.96397 0.0
O70 O 0.08019 0.08384 0.99990 0.0
O71 O 0.09942 0.05610 0.95830 0.0
O72 O 0.07249 0.02324 0.01964 0.0
O73 O 0.05504 0.98000 0.03836 0.0
O74 O 0.00978 0.07045 0.02957 0.0
O75 O 0.99107 0.02727 0.04685 0.0
O76 O 0.95696 0.94867 0.01088 0.0
O77 O 0.93773 0.97642 0.05252 0.0
O78 O 0.96466 0.00928 0.99118 0.0
O79 O 0.98211 0.05252 0.97246 0.0
Dy80 Dy 0.54242 0.30216 0.77402 0.0
Dy81 Dy 0.49904 0.23379 0.73130 0.0
C82 C 0.57103 0.22363 0.76721 0.0
C83 C 0.54034 0.32378 0.83527 0.0
C84 C 0.48744 0.25526 0.80856 0.0
C85 C 0.47043 0.31233 0.73811 0.0
C86 C 0.50112 0.21218 0.67005 0.0
C87 C 0.55403 0.28069 0.69676 0.0
O88 O 0.55224 0.21049 0.75223 0.0
O89 O 0.56579 0.25166 0.77214 0.0
O90 O 0.51743 0.33602 0.81694 0.0
O91 O 0.56473 0.30276 0.82687 0.0
O92 O 0.50268 0.27796 0.80587 0.0
O93 O 0.48753 0.23696 0.78732 0.0
O94 O 0.48922 0.32546 0.75309 0.0
O95 O 0.47567 0.28430 0.73318 0.0
O96 O 0.52404 0.19993 0.68838 0.0
O97 O 0.47673 0.23319 0.67845 0.0
O98 O 0.53878 0.25800 0.69945 0.0
O99 O 0.55394 0.29899 0.71799 0.0
Dy100 Dy 0.80962 0.28249 0.52728 0.0
Dy101 Dy 0.72666 0.24918 0.48710 0.0
C102 C 0.72195 0.28251 0.55441 0.0
C103 C 0.83289 0.33778 0.52609 0.0
C104 C 0.74830 0.31955 0.47733 0.0
C105 C 0.81432 0.24916 0.45996 0.0
C106 C 0.70339 0.19389 0.48829 0.0
C107 C 0.78797 0.21212 0.53704 0.0
O108 O 0.70503 0.26994 0.53690 0.0
O109 O 0.75373 0.28476 0.54937 0.0
O110 O 0.84500 0.31996 0.50447 0.0
O111 O 0.81145 0.33140 0.54875 0.0
O112 O 0.77636 0.31486 0.49119 0.0
O113 O 0.72765 0.30133 0.47726 0.0
O114 O 0.83125 0.26173 0.47747 0.0
O115 O 0.78255 0.24691 0.46501 0.0
O116 O 0.69128 0.21171 0.50990 0.0
O117 O 0.72483 0.20026 0.46563 0.0
O118 O 0.75992 0.21681 0.52318 0.0
O119 O 0.80863 0.23034 0.53712 0.0
Dy120 Dy 0.71303 0.99147 0.73288 0.0
Dy121 Dy 0.79479 0.02285 0.77707 0.0
C122 C 0.80156 0.96066 0.73968 0.0
C123 C 0.68912 0.99556 0.67140 0.0
C124 C 0.77202 0.03526 0.69975 0.0
C125 C 0.70626 0.05365 0.77026 0.0
C126 C 0.81870 0.01875 0.83854 0.0
C127 C 0.73580 0.97906 0.81019 0.0
O128 O 0.81797 0.97560 0.75517 0.0
O129 O 0.76962 0.96742 0.73465 0.0
O130 O 0.67645 0.01600 0.69015 0.0
O131 O 0.71143 0.97290 0.67947 0.0
O132 O 0.74456 0.02395 0.70197 0.0
O133 O 0.79286 0.03353 0.72116 0.0
O134 O 0.68985 0.03872 0.75477 0.0
O135 O 0.73820 0.04689 0.77530 0.0
O136 O 0.83138 0.99832 0.81980 0.0
O137 O 0.79640 0.04141 0.83048 0.0
O138 O 0.76326 0.99036 0.80798 0.0
O139 O 0.71496 0.98079 0.78879 0.0
Dy140 Dy 0.02670 0.29111 0.27541 0.0
Dy141 Dy 0.98489 0.22102 0.23413 0.0
C142 C 0.05626 0.21245 0.27082 0.0
C143 C 0.02347 0.31429 0.33603 0.0
C144 C 0.97192 0.24435 0.31067 0.0
C145 C 0.95533 0.29968 0.23872 0.0
C146 C 0.98812 0.19784 0.17352 0.0
C147 C 0.03967 0.26778 0.19888 0.0
O148 O 0.03790 0.19871 0.25604 0.0
O149 O 0.05063 0.24064 0.27500 0.0
O150 O 0.00010 0.32588 0.31723 0.0
O151 O 0.04816 0.29325 0.32836 0.0
O152 O 0.98689 0.26721 0.30753 0.0
O153 O 0.97254 0.22547 0.28993 0.0
O154 O 0.97370 0.31342 0.25350 0.0
O155 O 0.96097 0.27149 0.23455 0.0
O156 O 0.01084 0.18625 0.19231 0.0
O157 O 0.96343 0.21888 0.18118 0.0
O158 O 0.02470 0.24492 0.20202 0.0
O159 O 0.03905 0.28666 0.21962 0.0
Dy160 Dy 0.47483 0.99786 0.52855 0.0
Dy161 Dy 0.56239 0.03449 0.48227 0.0
C162 C 0.55989 0.99582 0.55115 0.0
C163 C 0.45142 0.94256 0.53109 0.0
C164 C 0.54146 0.96475 0.47679 0.0
C165 C 0.47732 0.03654 0.45967 0.0
C166 C 0.58580 0.08980 0.47974 0.0
C167 C 0.49576 0.06760 0.53404 0.0
O168 O 0.57876 0.00980 0.53210 0.0
O169 O 0.52855 0.99392 0.54788 0.0
O170 O 0.44161 0.96209 0.50921 0.0
O171 O 0.47055 0.94718 0.55242 0.0
O172 O 0.51187 0.96832 0.49199 0.0
O173 O 0.56225 0.98303 0.47480 0.0
O174 O 0.45846 0.02255 0.47873 0.0
O175 O 0.50867 0.03843 0.46295 0.0
O176 O 0.59560 0.07026 0.50161 0.0
O177 O 0.56667 0.08517 0.45840 0.0
O178 O 0.52534 0.06403 0.51883 0.0
O179 O 0.47496 0.04932 0.53603 0.0
Dy180 Dy 0.32845 0.26955 0.02560 0.0
Dy181 Dy 0.24850 0.23251 0.98488 0.0
C182 C 0.24117 0.26667 0.05192 0.0
C183 C 0.34887 0.32607 0.02421 0.0
C184 C 0.26672 0.30406 0.97478 0.0
C185 C 0.33578 0.23539 0.95857 0.0
C186 C 0.22807 0.17599 0.98628 0.0
C187 C 0.31022 0.19800 0.03570 0.0
O188 O 0.22528 0.25319 0.03434 0.0
O189 O 0.27262 0.27004 0.04715 0.0
O190 O 0.36207 0.30832 0.00284 0.0
O191 O 0.32758 0.31912 0.04672 0.0
O192 O 0.29452 0.30052 0.98895 0.0
O193 O 0.24713 0.28495 0.97466 0.0
O194 O 0.35167 0.24887 0.97615 0.0
O195 O 0.30433 0.23202 0.96333 0.0
O196 O 0.21488 0.19374 0.00765 0.0
O197 O 0.24936 0.18293 0.96377 0.0
O198 O 0.28242 0.20153 0.02154 0.0
O199 O 0.32982 0.21711 0.03583 0.0
Dy200 Dy 0.22337 0.49969 0.73757 0.0
Dy201 Dy 0.30731 0.52991 0.77953 0.0
C202 C 0.31204 0.46811 0.74192 0.0
C203 C 0.19743 0.50448 0.67690 0.0
C204 C 0.28211 0.54311 0.70305 0.0
C205 C 0.21865 0.56150 0.77519 0.0
C206 C 0.33326 0.52512 0.84020 0.0
C207 C 0.24858 0.48649 0.81406 0.0
O208 O 0.32922 0.48274 0.75696 0.0
O209 O 0.27991 0.47518 0.73776 0.0
O210 O 0.18559 0.52484 0.69598 0.0
O211 O 0.21977 0.48161 0.68430 0.0
O212 O 0.25446 0.53207 0.70597 0.0
O213 O 0.30369 0.54103 0.72383 0.0
O214 O 0.20147 0.54687 0.76014 0.0
O215 O 0.25077 0.55443 0.77934 0.0
O216 O 0.34509 0.50477 0.82112 0.0
O217 O 0.31092 0.54799 0.83281 0.0
O218 O 0.27622 0.49754 0.81114 0.0
O219 O 0.22699 0.48858 0.79327 0.0
Dy220 Dy 0.78867 0.79997 0.02597 0.0
Dy221 Dy 0.70873 0.76291 0.98523 0.0
C222 C 0.70138 0.79707 0.05227 0.0
C223 C 0.80907 0.85650 0.02458 0.0
C224 C 0.72694 0.83447 0.97514 0.0
C225 C 0.79602 0.76581 0.95893 0.0
C226 C 0.68832 0.70639 0.98662 0.0
C227 C 0.77045 0.72841 0.03607 0.0
O228 O 0.68550 0.78360 0.03469 0.0
O229 O 0.73283 0.80045 0.04751 0.0
O230 O 0.82228 0.83875 0.00321 0.0
O231 O 0.78778 0.84955 0.04709 0.0
O232 O 0.75474 0.83094 0.98931 0.0
O233 O 0.70736 0.81536 0.97501 0.0
O234 O 0.81190 0.77929 0.97651 0.0
O235 O 0.76457 0.76243 0.96369 0.0
O236 O 0.67512 0.72414 0.00799 0.0
O237 O 0.70962 0.71334 0.96412 0.0
O238 O 0.74266 0.73195 0.02190 0.0
O239 O 0.79004 0.74753 0.03620 0.0
Dy240 Dy 0.53805 0.79865 0.27948 0.0
Dy241 Dy 0.49468 0.73028 0.23674 0.0
C242 C 0.56667 0.72011 0.27266 0.0
C243 C 0.53597 0.82025 0.34073 0.0
C244 C 0.48307 0.75174 0.31400 0.0
C245 C 0.46606 0.80881 0.24356 0.0
C246 C 0.49677 0.70867 0.17549 0.0
C247 C 0.54966 0.77718 0.20222 0.0
O248 O 0.54787 0.70697 0.25767 0.0
O249 O 0.56142 0.74814 0.27759 0.0
O250 O 0.51305 0.83250 0.32240 0.0
O251 O 0.56036 0.79924 0.33233 0.0
O252 O 0.49831 0.77444 0.31132 0.0
O253 O 0.48316 0.73344 0.29277 0.0
O254 O 0.48486 0.82194 0.25855 0.0
O255 O 0.47131 0.78078 0.23863 0.0
O256 O 0.51968 0.69642 0.19382 0.0
O257 O 0.47238 0.72968 0.18389 0.0
O258 O 0.53442 0.75449 0.20490 0.0
O259 O 0.54957 0.79548 0.22345 0.0
Dy260 Dy 0.72985 0.50253 0.23128 0.0
Dy261 Dy 0.81375 0.53277 0.27327 0.0
C262 C 0.81851 0.47097 0.23565 0.0
C263 C 0.70393 0.50732 0.17060 0.0
C264 C 0.78858 0.54597 0.19678 0.0
C265 C 0.72509 0.56433 0.26890 0.0
C266 C 0.83967 0.52798 0.33395 0.0
C267 C 0.75502 0.48933 0.30777 0.0
O268 O 0.83568 0.48559 0.25071 0.0
O269 O 0.78638 0.47803 0.23149 0.0
O270 O 0.69208 0.52767 0.18968 0.0
O271 O 0.72627 0.48445 0.17800 0.0
O272 O 0.76094 0.53491 0.19969 0.0
O273 O 0.81016 0.54388 0.21757 0.0
O274 O 0.70792 0.54971 0.25385 0.0
O275 O 0.75722 0.55727 0.27306 0.0
O276 O 0.85152 0.50763 0.31487 0.0
O277 O 0.81733 0.55084 0.32656 0.0
O278 O 0.78266 0.50039 0.30487 0.0
O279 O 0.73344 0.49141 0.28698 0.0
Dy280 Dy 0.47773 0.49480 0.02972 0.0
Dy281 Dy 0.55956 0.53760 0.98101 0.0
C282 C 0.56310 0.49702 0.04882 0.0
C283 C 0.45863 0.43771 0.03183 0.0
C284 C 0.54357 0.46628 0.97467 0.0
C285 C 0.47419 0.53537 0.96191 0.0
C286 C 0.57866 0.59469 0.97890 0.0
C287 C 0.49372 0.56612 0.03606 0.0
O288 O 0.57987 0.51258 0.02942 0.0
O289 O 0.53207 0.49342 0.04676 0.0
O290 O 0.44651 0.45730 0.01089 0.0
O291 O 0.47824 0.44298 0.05245 0.0
O292 O 0.51476 0.46789 0.99109 0.0
O293 O 0.56275 0.48591 0.97231 0.0
O294 O 0.45742 0.51982 0.98131 0.0
O295 O 0.50522 0.53897 0.96398 0.0
O296 O 0.59079 0.57509 0.99990 0.0
O297 O 0.55906 0.58942 0.95828 0.0
O298 O 0.52253 0.56450 0.01965 0.0
O299 O 0.47455 0.54649 0.03843 0.0
Dy300 Dy 0.97502 0.49812 0.52955 0.0
Dy301 Dy 0.06194 0.53437 0.48138 0.0
C302 C 0.06058 0.49632 0.55067 0.0
C303 C 0.95154 0.44279 0.53324 0.0
C304 C 0.04078 0.46453 0.47723 0.0
C305 C 0.97638 0.53618 0.46025 0.0
C306 C 0.08542 0.58970 0.47768 0.0
C307 C 0.99618 0.56796 0.53369 0.0
O308 O 0.07917 0.51014 0.53115 0.0
O309 O 0.02914 0.49437 0.54796 0.0
O310 O 0.94137 0.46213 0.51131 0.0
O311 O 0.97107 0.44762 0.55414 0.0
O312 O 0.01143 0.46823 0.49285 0.0
O313 O 0.06160 0.48282 0.47463 0.0
O314 O 0.95780 0.52235 0.47977 0.0
O315 O 0.00782 0.53812 0.46296 0.0
O316 O 0.09559 0.57037 0.49961 0.0
O317 O 0.06589 0.58487 0.45679 0.0
O318 O 0.02553 0.56426 0.51807 0.0
O319 O 0.97536 0.54968 0.53629 0.0
N320 N 0.32664 0.00010 0.13452 0.0
C321 C 0.33225 0.02307 0.14429 0.0
O322 O 0.33876 0.04880 0.15581 0.0
C323 C 0.31238 0.07305 0.16162 0.0
C324 C 0.29124 0.07721 0.18451 0.0
C325 C 0.31221 0.09774 0.13369 0.0
C326 C 0.32710 0.10250 0.10630 0.0
O327 O 0.35325 0.08714 0.08447 0.0
C328 C 0.34339 0.07400 0.05841 0.0
N329 N 0.33567 0.06288 0.03712 0.0
C330 C 0.30750 0.13375 0.10189 0.0
C331 C 0.30747 0.15866 0.07762 0.0
C332 C 0.30751 0.17903 0.05748 0.0
C333 C 0.29143 0.12901 0.13103 0.0
O334 O 0.26613 0.14643 0.15036 0.0
C335 C 0.23361 0.13914 0.15976 0.0
N336 N 0.20643 0.13279 0.16753 0.0
H337 H 0.26973 0.08583 0.19999 0.0
N338 N 0.77552 0.84218 0.93380 0.0
C339 C 0.78663 0.81811 0.92280 0.0
O340 O 0.79866 0.79074 0.91054 0.0
C341 C 0.82711 0.77172 0.92230 0.0
C342 C 0.82899 0.75448 0.94608 0.0
C343 C 0.86023 0.77385 0.89985 0.0
C344 C 0.87043 0.78849 0.87504 0.0
O345 O 0.85686 0.81254 0.85293 0.0
C346 C 0.86333 0.84154 0.85616 0.0
N347 N 0.86815 0.86548 0.85872 0.0
C348 C 0.90629 0.77105 0.87418 0.0
C349 C 0.93778 0.77041 0.85300 0.0
C350 C 0.96364 0.77009 0.83551 0.0
C351 C 0.89581 0.75527 0.90062 0.0
O352 O 0.91183 0.73143 0.92011 0.0
C353 C 0.91621 0.73317 0.95259 0.0
N354 N 0.91970 0.73488 0.97983 0.0
H355 H 0.83815 0.73935 0.96511 0.0
N356 N 0.37818 0.54796 0.68949 0.0
C357 C 0.35157 0.56589 0.69114 0.0
O358 O 0.32135 0.58595 0.69352 0.0
C359 C 0.29552 0.58568 0.67308 0.0
C360 C 0.27362 0.56960 0.67420 0.0
C361 C 0.29628 0.61082 0.64572 0.0
C362 C 0.31392 0.63067 0.63473 0.0
O363 O 0.34459 0.64141 0.64126 0.0
C364 C 0.37531 0.63219 0.62279 0.0
N365 N 0.40074 0.62458 0.60804 0.0
C366 C 0.29035 0.64241 0.60907 0.0
C367 C 0.28811 0.66687 0.58413 0.0
C368 C 0.28651 0.68699 0.56359 0.0
C369 C 0.27129 0.62139 0.62050 0.0
O370 O 0.24084 0.61333 0.61210 0.0
C371 C 0.23851 0.58512 0.60157 0.0
N372 N 0.23684 0.56136 0.59281 0.0
H373 H 0.25366 0.55845 0.66862 0.0
N374 N 0.53775 0.97327 0.44102 0.0
C375 C 0.52231 0.99778 0.43279 0.0
O376 O 0.50529 0.02570 0.42368 0.0
C377 C 0.47261 0.03687 0.43735 0.0
C378 C 0.46413 0.04861 0.46276 0.0
C379 C 0.44428 0.03341 0.41487 0.0
C380 C 0.44086 0.02223 0.38871 0.0
O381 O 0.46188 0.00548 0.36421 0.0
C382 C 0.46283 0.97442 0.36419 0.0
N383 N 0.46412 0.94891 0.36407 0.0
C384 C 0.40288 0.03319 0.38972 0.0
C385 C 0.37524 0.03255 0.36880 0.0
C386 C 0.35262 0.03184 0.35149 0.0
C387 C 0.40611 0.04521 0.41762 0.0
O388 O 0.38310 0.06186 0.43950 0.0
C389 C 0.37623 0.05217 0.47140 0.0
N390 N 0.37071 0.04382 0.49812 0.0
H391 H 0.44983 0.05791 0.48323 0.0
N392 N 0.97854 0.11584 0.97371 0.0
C393 C 0.99307 0.10606 0.99737 0.0
O394 O 0.00970 0.09455 0.02387 0.0
C395 C 0.99141 0.08959 0.05293 0.0
C396 C 0.97682 0.06861 0.06242 0.0
C397 C 0.99149 0.11559 0.07538 0.0
C398 C 0.00122 0.14088 0.07542 0.0
O399 O 0.01793 0.16086 0.05389 0.0
C400 C 0.99798 0.18602 0.03927 0.0
N401 N 0.98191 0.20657 0.02688 0.0
C402 C 0.98927 0.14523 0.10965 0.0
C403 C 0.99043 0.16778 0.13268 0.0
C404 C 0.99138 0.18649 0.15146 0.0
C405 C 0.97877 0.11832 0.10997 0.0
O406 O 0.96289 0.10065 0.13324 0.0
C407 C 0.93033 0.09299 0.13131 0.0
N408 N 0.90302 0.08668 0.12942 0.0
H409 H 0.96133 0.05459 0.07579 0.0
N410 N 0.82520 0.84687 0.93006 0.0
C411 C 0.83402 0.84571 0.95698 0.0
O412 O 0.84375 0.84395 0.98753 0.0
C413 C 0.82953 0.86587 0.00873 0.0
C414 C 0.80203 0.86897 0.02483 0.0
C415 C 0.85457 0.88853 0.01116 0.0
C416 C 0.88316 0.89471 0.99886 0.0
O417 O 0.90947 0.88416 0.97454 0.0
C418 C 0.91005 0.89973 0.94460 0.0
N419 N 0.91062 0.91211 0.91985 0.0
C420 C 0.88275 0.91984 0.02009 0.0
C421 C 0.90605 0.94060 0.02517 0.0
C422 C 0.92531 0.95768 0.02913 0.0
C423 C 0.85229 0.91353 0.03342 0.0
O424 O 0.82885 0.92550 0.05794 0.0
C425 C 0.79469 0.93919 0.05376 0.0
N426 N 0.76606 0.95060 0.04998 0.0
H427 H 0.78005 0.87762 0.03975 0.0
N428 N 0.45077 0.30167 0.82043 0.0
C429 C 0.43911 0.30703 0.79460 0.0
O430 O 0.42618 0.31260 0.76527 0.0
C431 C 0.43677 0.33444 0.74358 0.0
C432 C 0.46268 0.33313 0.72532 0.0
C433 C 0.40953 0.36405 0.74392 0.0
C434 C 0.38144 0.37559 0.75873 0.0
O435 O 0.35813 0.36779 0.78483 0.0
C436 C 0.35956 0.37886 0.81480 0.0
N437 N 0.36067 0.38754 0.83957 0.0
C438 C 0.37781 0.40419 0.73832 0.0
C439 C 0.35220 0.43185 0.73584 0.0
C440 C 0.33105 0.45460 0.73402 0.0
C441 C 0.40770 0.39220 0.72231 0.0
O442 O 0.42797 0.40219 0.69630 0.0
C443 C 0.46199 0.40663 0.69772 0.0
N444 N 0.49053 0.41023 0.69918 0.0
H445 H 0.48274 0.33862 0.70884 0.0
N446 N 0.59736 0.18856 0.70195 0.0
C447 C 0.60406 0.21366 0.70096 0.0
O448 O 0.61133 0.24210 0.70035 0.0
C449 C 0.59827 0.26418 0.67768 0.0
C450 C 0.56982 0.28007 0.67723 0.0
C451 C 0.62620 0.26800 0.64987 0.0
C452 C 0.65666 0.25647 0.64000 0.0
O453 O 0.68357 0.23223 0.64897 0.0
C454 C 0.68841 0.20538 0.63331 0.0
N455 N 0.69245 0.18314 0.62088 0.0
C456 C 0.65791 0.27862 0.61206 0.0
C457 C 0.68363 0.28480 0.58643 0.0
C458 C 0.70491 0.28968 0.56533 0.0
C459 C 0.62546 0.29114 0.62227 0.0
O460 O 0.60161 0.31565 0.61139 0.0
C461 C 0.56935 0.31347 0.60120 0.0
N462 N 0.54233 0.31137 0.59275 0.0
H463 H 0.54772 0.29523 0.67013 0.0
N464 N 0.69457 0.03136 0.87291 0.0
C465 C 0.71773 0.01022 0.86932 0.0
O466 O 0.74420 0.98662 0.86488 0.0
C467 C 0.73896 0.96033 0.85228 0.0
C468 C 0.73739 0.95470 0.82451 0.0
C469 C 0.73548 0.93540 0.87942 0.0
C470 C 0.73400 0.93151 0.90969 0.0
O471 O 0.73425 0.94857 0.93719 0.0
C472 C 0.70311 0.95906 0.95444 0.0
N473 N 0.67772 0.96805 0.96862 0.0
C474 C 0.73207 0.89887 0.90948 0.0
C475 C 0.73104 0.87389 0.93352 0.0
C476 C 0.73007 0.85346 0.95346 0.0
C477 C 0.73364 0.90267 0.87722 0.0
O478 O 0.73371 0.88363 0.85247 0.0
C479 C 0.70823 0.88718 0.83062 0.0
N480 N 0.68674 0.89039 0.81239 0.0
H481 H 0.73349 0.94445 0.80357 0.0
N482 N 0.09818 0.17970 0.20940 0.0
C483 C 0.10266 0.20550 0.20575 0.0
O484 O 0.10735 0.23476 0.20210 0.0
C485 C 0.09598 0.25313 0.17579 0.0
C486 C 0.06716 0.26687 0.17090 0.0
C487 C 0.12652 0.25563 0.15023 0.0
C488 C 0.15834 0.24514 0.14456 0.0
O489 O 0.18519 0.22392 0.15880 0.0
C490 C 0.19432 0.19513 0.14723 0.0
N491 N 0.20184 0.17136 0.13818 0.0
C492 C 0.16152 0.26404 0.11425 0.0
C493 C 0.18942 0.26904 0.09035 0.0
C494 C 0.21251 0.27295 0.07072 0.0
C495 C 0.12765 0.27543 0.11996 0.0
O496 O 0.10400 0.29691 0.10406 0.0
C497 C 0.07438 0.29081 0.09157 0.0
N498 N 0.04958 0.28544 0.08123 0.0
H499 H 0.04547 0.27952 0.16008 0.0
N500 N 0.89830 0.01466 0.04142 0.0
C501 C 0.91213 0.00708 0.01586 0.0
O502 O 0.92831 0.99838 0.98720 0.0
C503 C 0.93049 0.01910 0.96133 0.0
C504 C 0.95045 0.03683 0.95520 0.0
C505 C 0.90269 0.01740 0.93761 0.0
C506 C 0.87722 0.00439 0.93479 0.0
O507 O 0.85858 0.98336 0.95266 0.0
C508 C 0.82714 0.99409 0.96933 0.0
N509 N 0.80150 0.00259 0.98336 0.0
C510 C 0.87065 0.01864 0.90228 0.0
C511 C 0.84682 0.01670 0.87797 0.0
C512 C 0.82702 0.01506 0.85813 0.0
C513 C 0.89772 0.03264 0.90494 0.0
O514 O 0.91406 0.05277 0.88508 0.0
C515 C 0.91585 0.08209 0.89266 0.0
N516 N 0.91724 0.10663 0.89928 0.0
H517 H 0.96278 0.05460 0.94500 0.0
N518 N 0.98899 0.16241 0.31743 0.0
C519 C 0.96600 0.18390 0.31602 0.0
O520 O 0.94020 0.20830 0.31389 0.0
C521 C 0.93897 0.23287 0.33231 0.0
C522 C 0.95459 0.25400 0.32810 0.0
C523 C 0.91254 0.23159 0.36192 0.0
C524 C 0.89285 0.21460 0.37595 0.0
O525 O 0.88368 0.18567 0.37262 0.0
C526 C 0.89836 0.16091 0.39175 0.0
N527 N 0.91046 0.14036 0.40706 0.0
C528 C 0.87873 0.23626 0.40092 0.0
C529 C 0.85260 0.23751 0.42789 0.0
C530 C 0.83113 0.23833 0.45012 0.0
C531 C 0.89957 0.25459 0.38624 0.0
O532 O 0.90586 0.28317 0.39171 0.0
C533 C 0.93783 0.28921 0.39892 0.0
N534 N 0.96478 0.29402 0.40490 0.0
H535 H 0.96530 0.27339 0.33114 0.0
N536 N 0.86663 0.15086 0.51376 0.0
C537 C 0.83693 0.15138 0.52363 0.0
O538 O 0.80319 0.15232 0.53437 0.0
C539 C 0.79056 0.16363 0.56378 0.0
C540 C 0.78138 0.18968 0.57108 0.0
C541 C 0.78806 0.13745 0.58967 0.0
C542 C 0.79548 0.10896 0.59336 0.0
O543 O 0.81138 0.08372 0.57523 0.0
C544 C 0.84564 0.07063 0.57957 0.0
N545 N 0.87381 0.05987 0.58266 0.0
C546 C 0.78043 0.10807 0.62710 0.0
C547 C 0.77516 0.08459 0.65195 0.0
C548 C 0.77102 0.06513 0.67231 0.0
C549 C 0.77236 0.13843 0.62353 0.0
O550 O 0.75595 0.16098 0.64340 0.0
C551 C 0.77163 0.18391 0.65315 0.0
N552 N 0.78504 0.20308 0.66114 0.0
H553 H 0.77354 0.20933 0.58398 0.0
N554 N 0.22552 0.89063 0.52343 0.0
C555 C 0.22059 0.88440 0.49696 0.0
O556 O 0.21477 0.87694 0.46727 0.0
C557 C 0.24200 0.86804 0.44485 0.0
C558 C 0.26060 0.84355 0.44206 0.0
C559 C 0.24719 0.89466 0.42025 0.0
C560 C 0.23594 0.92253 0.41473 0.0
O561 O 0.21143 0.94635 0.42874 0.0
C562 C 0.22315 0.96701 0.44644 0.0
N563 N 0.23236 0.98394 0.46127 0.0
C564 C 0.25815 0.92460 0.38443 0.0
C565 C 0.26281 0.94798 0.35929 0.0
C566 C 0.26658 0.96739 0.33875 0.0
C567 C 0.27038 0.89493 0.38998 0.0
O568 O 0.29448 0.87365 0.37379 0.0
C569 C 0.32501 0.85834 0.38619 0.0
N570 N 0.35052 0.84560 0.39684 0.0
H571 H 0.28075 0.82593 0.43506 0.0
N572 N 0.18645 0.10474 0.16446 0.0
C573 C 0.17952 0.07971 0.16796 0.0
O574 O 0.17195 0.05134 0.17241 0.0
C575 C 0.18659 0.02898 0.15186 0.0
C576 C 0.21502 0.01298 0.15122 0.0
C577 C 0.16067 0.02497 0.12715 0.0
C578 C 0.13097 0.03650 0.11831 0.0
O579 O 0.10352 0.06093 0.12606 0.0
C580 C 0.10018 0.08758 0.10667 0.0
N581 N 0.09735 0.10966 0.09115 0.0
C582 C 0.13166 0.01407 0.09383 0.0
C583 C 0.10776 0.00772 0.07146 0.0
C584 C 0.08798 0.00271 0.05304 0.0
C585 C 0.16331 0.00154 0.10298 0.0
O586 O 0.18784 0.97684 0.09364 0.0
C587 C 0.22107 0.97876 0.08009 0.0
N588 N 0.24890 0.98064 0.06879 0.0
H589 H 0.23761 0.99767 0.14440 0.0
N590 N 0.60102 0.07933 0.38923 0.0
C591 C 0.60963 0.07769 0.41626 0.0
O592 O 0.61911 0.07541 0.44693 0.0
C593 C 0.60564 0.09752 0.46814 0.0
C594 C 0.57801 0.10148 0.48401 0.0
C595 C 0.63185 0.11908 0.47095 0.0
C596 C 0.66097 0.12426 0.45895 0.0
O597 O 0.68713 0.11302 0.43480 0.0
C598 C 0.68865 0.12862 0.40493 0.0
N599 N 0.68998 0.14103 0.38024 0.0
C600 C 0.66155 0.14906 0.48035 0.0
C601 C 0.68588 0.16879 0.48578 0.0
C602 C 0.70601 0.18501 0.49004 0.0
C603 C 0.63052 0.14382 0.49336 0.0
O604 O 0.60732 0.15636 0.51775 0.0
C605 C 0.57362 0.17120 0.51331 0.0
N606 N 0.54538 0.18355 0.50931 0.0
H607 H 0.55619 0.11075 0.49878 0.0
N608 N 0.30657 0.33234 0.11038 0.0
C609 C 0.31155 0.34530 0.08475 0.0
O610 O 0.31668 0.35981 0.05561 0.0
C611 C 0.34568 0.35036 0.03531 0.0
C612 C 0.35137 0.32989 0.01710 0.0
C613 C 0.37341 0.37065 0.03732 0.0
C614 C 0.37923 0.39217 0.05270 0.0
O615 O 0.36317 0.41051 0.07822 0.0
C616 C 0.37450 0.40397 0.10895 0.0
N617 N 0.38331 0.39869 0.13433 0.0
C618 C 0.41261 0.39430 0.03400 0.0
C619 C 0.43865 0.41375 0.03308 0.0
C620 C 0.46003 0.42979 0.03254 0.0
C621 C 0.40678 0.37139 0.01741 0.0
O622 O 0.42465 0.35544 0.99210 0.0
C623 C 0.43772 0.32451 0.99402 0.0
N624 N 0.44852 0.29854 0.99590 0.0
H625 H 0.36343 0.31350 0.00106 0.0
N626 N 0.09420 0.73268 0.87214 0.0
C627 C 0.10859 0.72803 0.84602 0.0
O628 O 0.12470 0.72328 0.81635 0.0
C629 C 0.11288 0.70550 0.79555 0.0
C630 C 0.08921 0.71177 0.77799 0.0
C631 C 0.13517 0.67330 0.79590 0.0
C632 C 0.15965 0.65718 0.81023 0.0
O633 O 0.18127 0.65938 0.83547 0.0
C634 C 0.17374 0.64651 0.86590 0.0
N635 N 0.16768 0.63632 0.89103 0.0
C636 C 0.16089 0.63085 0.79046 0.0
C637 C 0.18225 0.60098 0.78798 0.0
C638 C 0.19988 0.57638 0.78616 0.0
C639 C 0.13482 0.64775 0.77497 0.0
O640 O 0.11587 0.64302 0.74979 0.0
C641 C 0.08024 0.64328 0.75239 0.0
N642 N 0.05034 0.64359 0.75484 0.0
H643 H 0.07002 0.71056 0.76223 0.0
N644 N 0.21489 0.06183 0.37306 0.0
C645 C 0.20203 0.06354 0.34780 0.0
O646 O 0.18782 0.06499 0.31913 0.0
C647 C 0.19367 0.08685 0.29530 0.0
C648 C 0.21838 0.08754 0.27589 0.0
C649 C 0.16230 0.11328 0.29474 0.0
C650 C 0.13362 0.12241 0.31003 0.0
O651 O 0.11321 0.11346 0.33778 0.0
C652 C 0.11347 0.12742 0.36634 0.0
N653 N 0.11371 0.13847 0.38999 0.0
C654 C 0.12463 0.14932 0.28771 0.0
C655 C 0.09510 0.17375 0.28444 0.0
C656 C 0.07073 0.19385 0.28198 0.0
C657 C 0.15509 0.13988 0.27118 0.0
O658 O 0.17221 0.15065 0.24351 0.0
C659 C 0.20427 0.15994 0.24257 0.0
N660 N 0.23119 0.16764 0.24205 0.0
H661 H 0.23632 0.09450 0.25801 0.0
N662 N 0.54287 0.73677 0.38231 0.0
C663 C 0.51859 0.72993 0.37077 0.0
O664 O 0.49150 0.72207 0.35726 0.0
C665 C 0.46275 0.74341 0.35014 0.0
C666 C 0.45844 0.76154 0.32724 0.0
C667 C 0.43261 0.74188 0.37638 0.0
C668 C 0.42603 0.72861 0.40326 0.0
O669 O 0.44335 0.70693 0.42581 0.0
C670 C 0.45478 0.71689 0.45306 0.0
N671 N 0.46458 0.72477 0.47534 0.0
C672 C 0.38910 0.74351 0.40578 0.0
C673 C 0.35907 0.74181 0.42834 0.0
C674 C 0.33449 0.74036 0.44708 0.0
C675 C 0.39572 0.75781 0.37717 0.0
O676 O 0.37594 0.77860 0.35696 0.0
C677 C 0.38220 0.80780 0.34861 0.0
N678 N 0.38771 0.83222 0.34174 0.0
H679 H 0.44844 0.77971 0.31146 0.0
N680 N 0.72383 0.52948 0.13179 0.0
C681 C 0.74918 0.54102 0.13135 0.0
O682 O 0.77813 0.55363 0.13110 0.0
C683 C 0.77829 0.57881 0.14820 0.0
C684 C 0.78161 0.58061 0.17659 0.0
C685 C 0.77409 0.60798 0.12565 0.0
C686 C 0.76868 0.61675 0.09685 0.0
O687 O 0.76271 0.60440 0.06769 0.0
C688 C 0.72904 0.60792 0.05831 0.0
N689 N 0.70153 0.61039 0.05050 0.0
C690 C 0.77098 0.64868 0.10164 0.0
C691 C 0.76957 0.67658 0.08144 0.0
C692 C 0.76827 0.69948 0.06467 0.0
C693 C 0.77677 0.63968 0.13237 0.0
O694 O 0.78290 0.65421 0.15899 0.0
C695 C 0.76131 0.65657 0.18722 0.0
N696 N 0.74305 0.65836 0.21080 0.0
H697 H 0.78227 0.58871 0.19950 0.0
N698 N 0.40464 0.22107 0.67658 0.0
C699 C 0.43176 0.20378 0.67583 0.0
O700 O 0.46256 0.18445 0.67545 0.0
C701 C 0.48735 0.18549 0.65003 0.0
C702 C 0.50845 0.20226 0.64443 0.0
C703 C 0.48655 0.16027 0.62679 0.0
C704 C 0.46943 0.13986 0.62232 0.0
O705 O 0.43972 0.12819 0.63642 0.0
C706 C 0.40824 0.13665 0.62255 0.0
N707 N 0.38220 0.14363 0.61161 0.0
C708 C 0.49227 0.12878 0.59399 0.0
C709 C 0.49449 0.10432 0.57248 0.0
C710 C 0.49608 0.08419 0.55480 0.0
C711 C 0.51075 0.15040 0.59845 0.0
O712 O 0.54027 0.15937 0.58293 0.0
C713 C 0.54107 0.18782 0.56764 0.0
N714 N 0.54146 0.21177 0.55493 0.0
H715 H 0.52757 0.21404 0.63328 0.0
N716 N 0.31688 0.86078 0.42676 0.0
C717 C 0.33466 0.85115 0.44846 0.0
O718 O 0.35456 0.83981 0.47299 0.0
C719 C 0.34885 0.85228 0.50267 0.0
C720 C 0.32757 0.84851 0.52474 0.0
C721 C 0.37519 0.87351 0.50636 0.0
C722 C 0.39925 0.88461 0.49052 0.0
O723 O 0.41622 0.88421 0.45890 0.0
C724 C 0.40724 0.90855 0.43702 0.0
N725 N 0.39989 0.92822 0.41874 0.0
C726 C 0.40721 0.90068 0.51799 0.0
C727 C 0.43266 0.91919 0.52385 0.0
C728 C 0.45363 0.93449 0.52845 0.0
C729 C 0.38166 0.88902 0.53517 0.0
O730 O 0.36763 0.89080 0.56675 0.0
C731 C 0.33336 0.90323 0.57568 0.0
N732 N 0.30455 0.91367 0.58289 0.0
H733 H 0.31153 0.85049 0.54625 0.0
N734 N 0.98171 0.31871 0.13913 0.0
C735 C 0.97803 0.32860 0.16536 0.0
O736 O 0.97435 0.33943 0.19516 0.0
C737 C 0.94518 0.33718 0.21553 0.0
C738 C 0.93811 0.31588 0.23277 0.0
C739 C 0.91940 0.36766 0.21514 0.0
C740 C 0.91523 0.39371 0.20102 0.0
O741 O 0.93229 0.41042 0.17618 0.0
C742 C 0.92035 0.41377 0.14555 0.0
N743 N 0.91103 0.41644 0.12025 0.0
C744 C 0.88262 0.40471 0.22046 0.0
C745 C 0.85847 0.43323 0.22291 0.0
C746 C 0.83865 0.45675 0.22470 0.0
C747 C 0.88672 0.37708 0.23572 0.0
O748 O 0.86805 0.36342 0.26051 0.0
C749 C 0.85271 0.33825 0.25738 0.0
N750 N 0.84000 0.31710 0.25450 0.0
H751 H 0.92506 0.30133 0.24820 0.0
N752 N 0.24034 0.15865 0.08279 0.0
C753 C 0.24341 0.14853 0.05670 0.0
O754 O 0.24744 0.13723 0.02711 0.0
C755 C 0.22570 0.14946 0.00340 0.0
C756 C 0.22635 0.17185 0.98542 0.0
C757 C 0.19748 0.12981 0.00010 0.0
C758 C 0.18643 0.10698 0.01425 0.0
O759 O 0.19364 0.08570 0.04092 0.0
C760 C 0.17281 0.08935 0.06944 0.0
N761 N 0.15615 0.09223 0.09306 0.0
C762 C 0.15966 0.10766 0.99112 0.0
C763 C 0.13405 0.08910 0.98586 0.0
C764 C 0.11295 0.07376 0.98177 0.0
C765 C 0.17114 0.13199 0.97646 0.0
O766 O 0.16204 0.15092 0.94966 0.0
C767 C 0.14922 0.18183 0.95056 0.0
N768 N 0.13853 0.20774 0.95159 0.0
H769 H 0.22000 0.19011 0.96851 0.0
N770 N 0.55506 0.23352 0.86587 0.0
C771 C 0.52917 0.22824 0.85579 0.0
O772 O 0.50021 0.22220 0.84389 0.0
C773 C 0.47053 0.24393 0.84248 0.0
C774 C 0.46325 0.26488 0.82283 0.0
C775 C 0.44380 0.23858 0.87087 0.0
C776 C 0.44071 0.22177 0.89610 0.0
O777 O 0.46097 0.19747 0.91372 0.0
C778 C 0.47606 0.20356 0.94087 0.0
N779 N 0.48886 0.20827 0.96299 0.0
C780 C 0.40410 0.23579 0.90403 0.0
C781 C 0.37697 0.23078 0.92876 0.0
C782 C 0.35482 0.22658 0.94927 0.0
C783 C 0.40699 0.25385 0.87723 0.0
O784 O 0.38458 0.27693 0.86202 0.0
C785 C 0.38986 0.30680 0.85726 0.0
N786 N 0.39457 0.33177 0.85336 0.0
H787 H 0.45121 0.28485 0.81073 0.0
N788 N 0.99455 0.46155 0.48598 0.0
C789 C 0.99221 0.48133 0.46500 0.0
O790 O 0.99009 0.50382 0.44142 0.0
C791 C 0.96318 0.52830 0.44231 0.0
C792 C 0.95946 0.55107 0.45713 0.0
C793 C 0.93507 0.52430 0.41981 0.0
C794 C 0.92754 0.50523 0.40202 0.0
O795 O 0.94089 0.47524 0.39245 0.0
C796 C 0.92631 0.45118 0.40690 0.0
N797 N 0.91481 0.43121 0.41878 0.0
C798 C 0.89602 0.52556 0.39129 0.0
C799 C 0.86993 0.52419 0.36895 0.0
C800 C 0.84848 0.52285 0.35059 0.0
C801 C 0.90371 0.54610 0.41013 0.0
O802 O 0.88851 0.57546 0.41717 0.0
C803 C 0.87532 0.58421 0.44770 0.0
N804 N 0.86437 0.59130 0.47341 0.0
H805 H 0.94913 0.57155 0.46787 0.0
N806 N 0.44349 0.53067 0.11430 0.0
C807 C 0.44565 0.55378 0.09859 0.0
O808 O 0.44792 0.57968 0.08039 0.0
C809 C 0.47932 0.58952 0.07381 0.0
C810 C 0.50282 0.58158 0.05376 0.0
C811 C 0.48237 0.61486 0.09616 0.0
C812 C 0.46638 0.62860 0.11979 0.0
O813 O 0.43546 0.62836 0.14038 0.0
C814 C 0.43770 0.61389 0.17084 0.0
N815 N 0.43912 0.60186 0.19575 0.0
C816 C 0.49206 0.64898 0.12067 0.0
C817 C 0.49552 0.67427 0.13933 0.0
C818 C 0.49823 0.69501 0.15487 0.0
C819 C 0.50937 0.63456 0.09550 0.0
O820 O 0.53973 0.63733 0.07679 0.0
C821 C 0.56894 0.61468 0.07462 0.0
N822 N 0.59328 0.59551 0.07293 0.0
H823 H 0.52688 0.57827 0.04016 0.0
N824 N 0.82106 0.97471 0.81857 0.0
C825 C 0.83426 0.97183 0.79174 0.0
O826 O 0.84886 0.96904 0.76127 0.0
C827 C 0.84330 0.94622 0.74289 0.0
C828 C 0.81882 0.94474 0.72753 0.0
C829 C 0.87468 0.91979 0.74283 0.0
C830 C 0.90317 0.91129 0.75546 0.0
O831 O 0.92325 0.92139 0.77811 0.0
C832 C 0.92259 0.90878 0.80945 0.0
N833 N 0.92203 0.89885 0.83531 0.0
C834 C 0.91243 0.88347 0.73730 0.0
C835 C 0.94201 0.85890 0.73442 0.0
C836 C 0.96642 0.83870 0.73227 0.0
C837 C 0.88218 0.89222 0.72364 0.0
O838 O 0.86540 0.88031 0.70093 0.0
C839 C 0.83331 0.87112 0.70688 0.0
N840 N 0.80636 0.86353 0.71212 0.0
H841 H 0.80109 0.93706 0.71392 0.0
N842 N 0.13297 0.52008 0.51351 0.0
C843 C 0.11944 0.54602 0.51617 0.0
O844 O 0.10362 0.57518 0.51931 0.0
C845 C 0.10172 0.59597 0.49321 0.0
C846 C 0.08178 0.60026 0.47200 0.0
C847 C 0.12984 0.61618 0.49339 0.0
C848 C 0.15538 0.61902 0.50863 0.0
O849 O 0.17386 0.60448 0.53511 0.0
C850 C 0.20511 0.58498 0.52913 0.0
N851 N 0.23059 0.56871 0.52457 0.0
C852 C 0.16233 0.64636 0.48894 0.0
C853 C 0.18649 0.66744 0.48895 0.0
C854 C 0.20655 0.68464 0.48905 0.0
C855 C 0.13519 0.64363 0.47249 0.0
O856 O 0.11904 0.65998 0.44683 0.0
C857 C 0.11711 0.64835 0.41718 0.0
N858 N 0.11561 0.63835 0.39242 0.0
H859 H 0.06955 0.60774 0.45070 0.0
N860 N 0.26159 0.94199 0.26803 0.0
C861 C 0.29114 0.94476 0.27013 0.0
O862 O 0.32435 0.94838 0.27267 0.0
C863 C 0.34779 0.94774 0.24600 0.0
C864 C 0.35184 0.96749 0.22536 0.0
C865 C 0.37182 0.91638 0.24459 0.0
C866 C 0.37603 0.89040 0.25887 0.0
O867 O 0.36024 0.87441 0.28517 0.0
C868 C 0.33851 0.85458 0.27899 0.0
N869 N 0.32038 0.83847 0.27428 0.0
C870 C 0.40737 0.87871 0.23807 0.0
C871 C 0.43229 0.85057 0.23657 0.0
C872 C 0.45263 0.82729 0.23543 0.0
C873 C 0.40321 0.90627 0.22263 0.0
O874 O 0.42117 0.91949 0.19700 0.0
C875 C 0.40722 0.93025 0.16799 0.0
N876 N 0.39523 0.93924 0.14377 0.0
H877 H 0.35976 0.97946 0.20427 0.0
N878 N 0.13640 0.92423 0.99990 0.0
C879 C 0.12324 0.93413 0.97550 0.0
O880 O 0.10847 0.94580 0.94810 0.0
C881 C 0.07384 0.94565 0.94443 0.0
C882 C 0.04813 0.96272 0.95425 0.0
C883 C 0.06986 0.91926 0.92385 0.0
C884 C 0.08774 0.89663 0.91058 0.0
O885 O 0.12305 0.88169 0.90717 0.0
C886 C 0.13365 0.85563 0.92629 0.0
N887 N 0.14276 0.83441 0.94202 0.0
C888 C 0.05761 0.88820 0.89655 0.0
C889 C 0.05221 0.86524 0.87556 0.0
C890 C 0.04797 0.84620 0.85836 0.0
C891 C 0.03823 0.91222 0.91054 0.0
O892 O 0.00325 0.92497 0.91166 0.0
C893 C 0.98136 0.92737 0.93970 0.0
N894 N 0.96324 0.92929 0.96337 0.0
H895 H 0.02234 0.97275 0.96067 0.0
N896 N 0.20736 0.71453 0.52221 0.0
C897 C 0.19327 0.73943 0.52916 0.0
O898 O 0.17756 0.76777 0.53651 0.0
C899 C 0.18710 0.78156 0.56206 0.0
C900 C 0.21137 0.79463 0.56370 0.0
C901 C 0.16104 0.77934 0.59181 0.0
C902 C 0.13472 0.76764 0.60118 0.0
O903 O 0.11344 0.74879 0.58942 0.0
C904 C 0.11839 0.71816 0.59899 0.0
N905 N 0.12239 0.69296 0.60639 0.0
C906 C 0.13037 0.78113 0.63293 0.0
C907 C 0.10558 0.78170 0.66093 0.0
C908 C 0.08513 0.78196 0.68393 0.0
C909 C 0.15837 0.79375 0.62329 0.0
O910 O 0.17670 0.81254 0.63719 0.0
C911 C 0.21138 0.80464 0.64394 0.0
N912 N 0.24050 0.79778 0.64946 0.0
H913 H 0.23022 0.80553 0.57207 0.0
N914 N 0.08423 0.55284 0.49172 0.0
C915 C 0.09514 0.52935 0.50589 0.0
O916 O 0.10727 0.50254 0.52152 0.0
C917 C 0.09429 0.49533 0.55234 0.0
C918 C 0.06798 0.48555 0.56137 0.0
C919 C 0.11911 0.50075 0.57744 0.0
C920 C 0.14664 0.51117 0.57934 0.0
O921 O 0.17125 0.52473 0.55874 0.0
C922 C 0.16923 0.55597 0.55748 0.0
N923 N 0.16767 0.58158 0.55598 0.0
C924 C 0.14741 0.50415 0.61451 0.0
C925 C 0.17072 0.50672 0.63906 0.0
C926 C 0.18999 0.50901 0.65916 0.0
C927 C 0.11810 0.49297 0.61286 0.0
O928 O 0.09635 0.47960 0.63518 0.0
C929 C 0.06162 0.49160 0.64274 0.0
N930 N 0.03251 0.50184 0.64886 0.0
H931 H 0.04700 0.47863 0.57553 0.0
N932 N 0.55082 0.85167 0.22645 0.0
C933 C 0.54966 0.83621 0.20445 0.0
O934 O 0.54782 0.81862 0.17982 0.0
C935 C 0.57201 0.79268 0.17474 0.0
C936 C 0.57376 0.76749 0.18784 0.0
C937 C 0.59963 0.79871 0.14740 0.0
C938 C 0.60860 0.82002 0.12914 0.0
O939 O 0.59829 0.85195 0.12331 0.0
C940 C 0.61668 0.87155 0.13587 0.0
N941 N 0.63132 0.88788 0.14628 0.0
C942 C 0.63732 0.79995 0.11185 0.0
C943 C 0.66260 0.80354 0.08493 0.0
C944 C 0.68341 0.80670 0.06282 0.0
C945 C 0.62807 0.77702 0.13113 0.0
O946 O 0.64019 0.74604 0.13413 0.0
C947 C 0.65403 0.73085 0.16157 0.0
N948 N 0.66556 0.71832 0.18472 0.0
H949 H 0.58225 0.74481 0.19574 0.0
N950 N 0.67855 0.38453 0.50827 0.0
C951 C 0.68869 0.37461 0.48260 0.0
O952 O 0.70004 0.36293 0.45379 0.0
C953 C 0.73417 0.36159 0.44182 0.0
C954 C 0.75982 0.34331 0.44806 0.0
C955 C 0.73756 0.38796 0.41637 0.0
C956 C 0.71969 0.41146 0.40397 0.0
O957 O 0.68500 0.42793 0.40671 0.0
C958 C 0.67779 0.45384 0.42408 0.0
N959 N 0.67144 0.47495 0.43850 0.0
C960 C 0.74878 0.41873 0.38153 0.0
C961 C 0.75333 0.44165 0.35586 0.0
C962 C 0.75690 0.46067 0.33484 0.0
C963 C 0.76813 0.39377 0.39450 0.0
O964 O 0.80238 0.37952 0.38923 0.0
C965 C 0.82683 0.37559 0.41210 0.0
N966 N 0.84711 0.37237 0.43148 0.0
H967 H 0.78558 0.33207 0.44981 0.0
N968 N 0.69890 0.59695 0.13181 0.0
C969 C 0.68415 0.57692 0.14287 0.0
O970 O 0.66768 0.55433 0.15588 0.0
C971 C 0.67698 0.52518 0.14575 0.0
C972 C 0.70074 0.50531 0.15316 0.0
C973 C 0.65138 0.51879 0.12185 0.0
C974 C 0.62563 0.53196 0.10705 0.0
O975 O 0.60494 0.56139 0.10347 0.0
C976 C 0.61092 0.57986 0.07620 0.0
N977 N 0.61577 0.59534 0.05411 0.0
C978 C 0.62116 0.50414 0.09202 0.0
C979 C 0.59673 0.49601 0.07127 0.0
C980 C 0.57657 0.48951 0.05409 0.0
C981 C 0.64855 0.48981 0.10762 0.0
O982 O 0.66633 0.46019 0.10956 0.0
C983 C 0.70116 0.45145 0.09941 0.0
N984 N 0.73041 0.44439 0.09086 0.0
H985 H 0.71924 0.48523 0.15408 0.0
N986 N 0.06432 0.39659 0.53385 0.0
C987 C 0.06967 0.40409 0.50600 0.0
O988 O 0.07598 0.41297 0.47467 0.0
C989 C 0.04907 0.42349 0.45524 0.0
C990 C 0.03111 0.44840 0.45278 0.0
C991 C 0.04330 0.39829 0.43385 0.0
C992 C 0.05385 0.37057 0.42936 0.0
O993 O 0.07767 0.34564 0.44217 0.0
C994 C 0.06516 0.32431 0.46357 0.0
N995 N 0.05529 0.30682 0.48138 0.0
C996 C 0.03173 0.37046 0.40234 0.0
C997 C 0.02659 0.34851 0.38003 0.0
C998 C 0.02242 0.33028 0.36182 0.0
C999 C 0.02025 0.40000 0.40684 0.0
O1000 O 0.99678 0.42250 0.39203 0.0
C1001 C 0.96645 0.43768 0.40738 0.0
N1002 N 0.94110 0.45030 0.42051 0.0
H1003 H 0.01143 0.46670 0.44696 0.0
N1004 N 0.58200 0.22375 0.86705 0.0
C1005 C 0.59658 0.21916 0.84100 0.0
O1006 O 0.61293 0.21450 0.81140 0.0
C1007 C 0.60122 0.19686 0.79038 0.0
C1008 C 0.57771 0.20328 0.77264 0.0
C1009 C 0.62339 0.16462 0.79071 0.0
C1010 C 0.64771 0.14837 0.80516 0.0
O1011 O 0.66912 0.15039 0.83062 0.0
C1012 C 0.66130 0.13743 0.86093 0.0
N1013 N 0.65499 0.12715 0.88597 0.0
C1014 C 0.64903 0.12214 0.78522 0.0
C1015 C 0.67031 0.09223 0.78273 0.0
C1016 C 0.68787 0.06761 0.78090 0.0
C1017 C 0.62314 0.13917 0.76961 0.0
O1018 O 0.60439 0.13462 0.74422 0.0
C1019 C 0.56874 0.13498 0.74653 0.0
N1020 N 0.53882 0.13539 0.74873 0.0
H1021 H 0.55866 0.20220 0.75671 0.0
N1022 N 0.35122 0.34132 0.98739 0.0
C1023 C 0.32156 0.34959 0.98132 0.0
O1024 O 0.28786 0.35865 0.97490 0.0
C1025 C 0.27563 0.35104 0.94708 0.0
C1026 C 0.26678 0.32767 0.94092 0.0
C1027 C 0.27311 0.37797 0.92152 0.0
C1028 C 0.28029 0.40430 0.91691 0.0
O1029 O 0.29577 0.42489 0.93304 0.0
C1030 C 0.33001 0.42783 0.92433 0.0
N1031 N 0.35816 0.43025 0.91764 0.0
C1032 C 0.26554 0.40961 0.88508 0.0
C1033 C 0.26026 0.43467 0.86092 0.0
C1034 C 0.25612 0.45537 0.84109 0.0
C1035 C 0.25773 0.38161 0.88965 0.0
O1036 O 0.24173 0.36388 0.87184 0.0
C1037 C 0.25780 0.33624 0.86004 0.0
N1038 N 0.27151 0.31307 0.85031 0.0
H1039 H 0.25926 0.31030 0.92899 0.0
N1040 N 0.93304 0.70024 0.71083 0.0
C1041 C 0.96103 0.68877 0.69952 0.0
O1042 O 0.99292 0.67604 0.68713 0.0
C1043 C 0.00471 0.68366 0.65603 0.0
C1044 C 0.01741 0.70543 0.64549 0.0
C1045 C 0.00010 0.65915 0.63302 0.0
C1046 C 0.98836 0.63506 0.63282 0.0
O1047 O 0.97016 0.61617 0.65438 0.0
C1048 C 0.93453 0.61846 0.65314 0.0
N1049 N 0.90527 0.62031 0.65260 0.0
C1050 C 0.00010 0.63018 0.59864 0.0
C1051 C 0.99990 0.60701 0.57624 0.0
C1052 C 0.99834 0.58790 0.55792 0.0
C1053 C 0.01331 0.65580 0.59848 0.0
O1054 O 0.03141 0.67199 0.57547 0.0
C1055 C 0.01937 0.70154 0.56402 0.0
N1056 N 0.00905 0.72634 0.55462 0.0
H1057 H 0.02729 0.72198 0.63013 0.0
N1058 N 0.57732 0.72028 0.37254 0.0
C1059 C 0.59157 0.71793 0.34605 0.0
O1060 O 0.60743 0.71578 0.31597 0.0
C1061 C 0.59897 0.69641 0.29486 0.0
C1062 C 0.57479 0.69974 0.27789 0.0
C1063 C 0.62624 0.66684 0.29388 0.0
C1064 C 0.65294 0.65368 0.30732 0.0
O1065 O 0.67372 0.65854 0.33224 0.0
C1066 C 0.66933 0.64401 0.36241 0.0
N1067 N 0.66576 0.63247 0.38733 0.0
C1068 C 0.65860 0.62743 0.28676 0.0
C1069 C 0.68451 0.60013 0.28303 0.0
C1070 C 0.70590 0.57765 0.28019 0.0
C1071 C 0.63021 0.64117 0.27222 0.0
O1072 O 0.61246 0.63412 0.24723 0.0
C1073 C 0.57821 0.62941 0.25044 0.0
N1074 N 0.54946 0.62554 0.25341 0.0
H1075 H 0.55632 0.69608 0.26243 0.0
N1076 N 0.70624 0.08023 0.63009 0.0
C1077 C 0.68700 0.06375 0.64167 0.0
O1078 O 0.66544 0.04517 0.65528 0.0
C1079 C 0.67017 0.01511 0.64801 0.0
C1080 C 0.69002 0.99339 0.65843 0.0
C1081 C 0.64474 0.01056 0.62307 0.0
C1082 C 0.62214 0.02554 0.60569 0.0
O1083 O 0.60686 0.05635 0.59854 0.0
C1084 C 0.61803 0.07127 0.57039 0.0
N1085 N 0.62718 0.08387 0.54755 0.0
C1086 C 0.61355 0.99822 0.59255 0.0
C1087 C 0.58878 0.99207 0.57095 0.0
C1088 C 0.56839 0.98721 0.55305 0.0
C1089 C 0.63754 0.98197 0.61094 0.0
O1090 O 0.64995 0.95124 0.61627 0.0
C1091 C 0.68415 0.93744 0.60907 0.0
N1092 N 0.71290 0.92611 0.60298 0.0
H1093 H 0.70496 0.97168 0.66207 0.0
N1094 N 0.47212 0.37933 0.79547 0.0
C1095 C 0.49934 0.37548 0.80755 0.0
O1096 O 0.53036 0.37078 0.82080 0.0
C1097 C 0.53372 0.35824 0.85180 0.0
C1098 C 0.53706 0.33191 0.86180 0.0
C1099 C 0.53359 0.38322 0.87558 0.0
C1100 C 0.52956 0.41168 0.87642 0.0
O1101 O 0.52214 0.43803 0.85525 0.0
C1102 C 0.48860 0.45449 0.85593 0.0
N1103 N 0.46114 0.46803 0.85601 0.0
C1104 C 0.53612 0.41068 0.91093 0.0
C1105 C 0.53863 0.43274 0.93409 0.0
C1106 C 0.54053 0.45105 0.95304 0.0
C1107 C 0.54049 0.38035 0.91041 0.0
O1108 O 0.54839 0.35654 0.93313 0.0
C1109 C 0.52656 0.33596 0.94342 0.0
N1110 N 0.50808 0.31880 0.95185 0.0
H1111 H 0.53858 0.31190 0.87673 0.0
N1112 N 0.46269 0.47157 0.01480 0.0
C1113 C 0.46770 0.48387 0.98881 0.0
O1114 O 0.47391 0.49782 0.95957 0.0
C1115 C 0.45485 0.52570 0.95073 0.0
C1116 C 0.45796 0.55092 0.95729 0.0
C1117 C 0.42623 0.52195 0.92868 0.0
C1118 C 0.41316 0.50163 0.91733 0.0
O1119 O 0.41714 0.46935 0.91868 0.0
C1120 C 0.39400 0.45507 0.93855 0.0
N1121 N 0.37542 0.44306 0.95498 0.0
C1122 C 0.38859 0.52357 0.89851 0.0
C1123 C 0.36285 0.52178 0.87595 0.0
C1124 C 0.34163 0.52011 0.85749 0.0
C1125 C 0.40226 0.54546 0.91041 0.0
O1126 O 0.39632 0.57688 0.90674 0.0
C1127 C 0.38466 0.59601 0.93162 0.0
N1128 N 0.37492 0.61185 0.95269 0.0
H1129 H 0.45384 0.57440 0.96020 0.0
N1130 N 0.56969 0.60741 0.88602 0.0
C1131 C 0.58556 0.60062 0.90953 0.0
O1132 O 0.60332 0.59247 0.93615 0.0
C1133 C 0.59425 0.60764 0.96408 0.0
C1134 C 0.57146 0.60495 0.98506 0.0
C1135 C 0.61868 0.63066 0.96731 0.0
C1136 C 0.64323 0.64148 0.95198 0.0
O1137 O 0.66292 0.63884 0.92166 0.0
C1138 C 0.65496 0.66087 0.89709 0.0
N1139 N 0.64850 0.67862 0.87664 0.0
C1140 C 0.64761 0.66071 0.97820 0.0
C1141 C 0.67109 0.68115 0.98378 0.0
C1142 C 0.69045 0.69803 0.98815 0.0
C1143 C 0.62150 0.64939 0.99482 0.0
O1144 O 0.60463 0.65355 0.02515 0.0
C1145 C 0.56952 0.66534 0.03078 0.0
N1146 N 0.54003 0.67521 0.03522 0.0
H1147 H 0.55357 0.60826 0.00526 0.0
N1148 N 0.80394 0.33274 0.61482 0.0
C1149 C 0.80585 0.34890 0.59083 0.0
O1150 O 0.80746 0.36707 0.56358 0.0
C1151 C 0.83315 0.35996 0.53925 0.0
C1152 C 0.83505 0.34248 0.51806 0.0
C1153 C 0.86253 0.37862 0.54085 0.0
C1154 C 0.87188 0.39719 0.55813 0.0
O1155 O 0.86050 0.41184 0.58734 0.0
C1156 C 0.87616 0.40072 0.61539 0.0
N1157 N 0.88854 0.39167 0.63862 0.0
C1158 C 0.90286 0.40100 0.53640 0.0
C1159 C 0.93005 0.41931 0.53520 0.0
C1160 C 0.95241 0.43439 0.53444 0.0
C1161 C 0.89324 0.38125 0.51775 0.0
O1162 O 0.90660 0.36885 0.48886 0.0
C1163 C 0.91836 0.33808 0.48525 0.0
N1164 N 0.92811 0.31221 0.48249 0.0
H1165 H 0.84390 0.32849 0.49885 0.0
N1166 N 0.43554 0.85296 0.34119 0.0
C1167 C 0.46446 0.85841 0.33995 0.0
O1168 O 0.49730 0.86429 0.33809 0.0
C1169 C 0.51951 0.85332 0.36183 0.0
C1170 C 0.53700 0.82839 0.36605 0.0
C1171 C 0.52112 0.87836 0.38505 0.0
C1172 C 0.50739 0.90528 0.39063 0.0
O1173 O 0.48132 0.92873 0.37851 0.0
C1174 C 0.44858 0.93384 0.39466 0.0
N1175 N 0.42152 0.93807 0.40749 0.0
C1176 C 0.52939 0.90688 0.41737 0.0
C1177 C 0.53393 0.92991 0.43865 0.0
C1178 C 0.53744 0.94895 0.45616 0.0
C1179 C 0.54425 0.87821 0.41172 0.0
O1180 O 0.57046 0.85747 0.42525 0.0
C1181 C 0.56583 0.82982 0.44067 0.0
N1182 N 0.56166 0.80667 0.45351 0.0
H1183 H 0.55298 0.80919 0.37596 0.0
loop_
_geom_bond_atom_site_label_1
_geom_bond_atom_site_label_2
_geom_bond_distance
_geom_bond_site_symmetry_2
_ccdc_geom_bond_type
Dy0 O9 2.279 1_545 S
Dy0 O10 2.444 . S
Dy0 O11 2.431 1_545 S
Dy0 O12 2.315 . S
Dy0 O14 2.354 . S
Dy0 O19 2.340 1_545 S
Dy1 O8 2.354 1_545 S
Dy1 O13 2.340 . S
Dy1 O15 2.279 . S
Dy1 O16 2.444 . S
Dy1 O17 2.431 . S
Dy1 O18 2.315 . S
C2 O8 1.245 . A
C2 O9 1.259 . A
C3 O10 1.248 . A
C3 O11 1.256 1_545 A
C4 O12 1.257 . A
C4 O13 1.243 . A
C5 O14 1.245 . A
C5 O15 1.259 . A
C6 O16 1.248 . A
C6 O17 1.256 . A
C7 O18 1.257 1_565 A
C7 O19 1.243 . A
Dy20 O29 2.279 . S
Dy20 O30 2.444 . S
Dy20 O31 2.431 . S
Dy20 O32 2.315 . S
Dy20 O34 2.334 1_455 S
Dy20 O39 2.340 . S
Dy21 O28 2.354 . S
Dy21 O33 2.340 1_455 S
Dy21 O35 2.279 1_455 S
Dy21 O36 2.444 . S
Dy21 O37 2.431 1_455 S
Dy21 O38 2.315 . S
C22 O28 1.245 . A
C22 O29 1.259 . A
C23 O30 1.248 . A
C23 O31 1.256 . A
C24 O32 1.257 1_655 A
C24 O33 1.243 . A
C25 O34 1.262 . A
C25 O35 1.259 . A
C26 O36 1.248 . A
C26 O37 1.256 1_455 A
C27 O38 1.257 . A
C27 O39 1.243 . A
Dy40 O49 2.279 . S
Dy40 O50 2.444 . S
Dy40 O51 2.431 . S
Dy40 O52 2.315 . S
Dy40 O54 2.354 . S
Dy40 O59 2.340 . S
Dy41 O48 2.354 . S
Dy41 O53 2.340 . S
Dy41 O55 2.279 . S
Dy41 O56 2.444 . S
Dy41 O57 2.431 . S
Dy41 O58 2.315 . S
C42 O48 1.245 . A
C42 O49 1.259 . A
C43 O50 1.248 . A
C43 O51 1.256 . A
C44 O52 1.257 . A
C44 O53 1.243 . A
C45 O54 1.245 . A
C45 O55 1.259 . A
C46 O56 1.248 . A
C46 O57 1.256 . A
C47 O58 1.257 . A
C47 O59 1.243 . A
Dy60 O69 2.279 . S
Dy60 O70 2.443 . S
Dy60 O71 2.431 . S
Dy60 O72 2.315 1_556 S
Dy60 O74 2.354 1_556 S
Dy60 O79 2.340 1_455 S
Dy61 O68 2.354 1_654 S
Dy61 O73 2.340 1_655 S
Dy61 O75 2.279 1_565 S
Dy61 O76 2.444 . S
Dy61 O77 2.431 . S
Dy61 O78 2.315 1_564 S
C62 O68 1.245 . A
C62 O69 1.259 1_565 A
C63 O70 1.247 . A
C63 O71 1.256 . A
C64 O72 1.257 1_565 A
C64 O73 1.243 . A
C65 O74 1.245 1_655 A
C65 O75 1.259 . A
C66 O76 1.248 . A
C66 O77 1.256 . A
C67 O78 1.257 . A
C67 O79 1.243 . A
Dy80 O89 2.279 . S
Dy80 O90 2.444 . S
Dy80 O91 2.431 . S
Dy80 O92 2.315 . S
Dy80 O94 2.354 . S
Dy80 O99 2.340 . S
Dy81 O88 2.354 . S
Dy81 O93 2.340 . S
Dy81 O95 2.279 . S
Dy81 O96 2.444 . S
Dy81 O97 2.431 . S
Dy81 O98 2.315 . S
C82 O88 1.245 . A
C82 O89 1.259 . A
C83 O90 1.248 . A
C83 O91 1.256 . A
C84 O92 1.257 . A
C84 O93 1.243 . A
C85 O94 1.245 . A
C85 O95 1.259 . A
C86 O96 1.248 . A
C86 O97 1.256 . A
C87 O98 1.257 . A
C87 O99 1.243 . A
Dy100 O109 2.279 . S
Dy100 O110 2.444 . S
Dy100 O111 2.431 . S
Dy100 O112 2.315 . S
Dy100 O114 2.354 . S
Dy100 O119 2.340 . S
Dy101 O108 2.354 . S
Dy101 O113 2.340 . S
Dy101 O115 2.279 . S
Dy101 O116 2.444 . S
Dy101 O117 2.431 . S
Dy101 O118 2.315 . S
C102 O108 1.245 . A
C102 O109 1.259 . A
C103 O110 1.248 . A
C103 O111 1.256 . A
C104 O112 1.257 . A
C104 O113 1.243 . A
C105 O114 1.245 . A
C105 O115 1.259 . A
C106 O116 1.248 . A
C106 O117 1.256 . A
C107 O118 1.257 . A
C107 O119 1.243 . A
Dy120 O129 2.279 . S
Dy120 O130 2.444 1_565 S
Dy120 O131 2.431 . S
Dy120 O132 2.315 1_565 S
Dy120 O134 2.354 1_565 S
Dy120 O139 2.340 . S
Dy121 O128 2.354 1_545 S
Dy121 O133 2.340 . S
Dy121 O135 2.279 . S
Dy121 O136 2.444 1_545 S
Dy121 O137 2.431 . S
Dy121 O138 2.315 1_545 S
C122 O128 1.245 . A
C122 O129 1.259 . A
C123 O130 1.248 1_565 A
C123 O131 1.256 . A
C124 O132 1.257 . A
C124 O133 1.243 . A
C125 O134 1.245 . A
C125 O135 1.259 . A
C126 O136 1.248 1_545 A
C126 O137 1.256 . A
C127 O138 1.257 . A
C127 O139 1.243 . A
Dy140 O149 2.279 . S
Dy140 O150 2.450 . S
Dy140 O151 2.431 . S
Dy140 O152 2.315 1_455 S
Dy140 O154 2.354 1_455 S
Dy140 O159 2.340 . S
Dy141 O148 2.354 1_655 S
Dy141 O153 2.340 . S
Dy141 O155 2.279 . S
Dy141 O156 2.444 1_655 S
Dy141 O157 2.431 . S
Dy141 O158 2.315 1_655 S
C142 O148 1.245 . A
C142 O149 1.259 . A
C143 O150 1.265 . A
C143 O151 1.256 . A
C144 O152 1.257 . A
C144 O153 1.243 . A
C145 O154 1.245 . A
C145 O155 1.259 . A
C146 O156 1.248 1_655 A
C146 O157 1.256 . A
C147 O158 1.257 . A
C147 O159 1.243 . A
Dy160 O169 2.279 . S
Dy160 O170 2.444 . S
Dy160 O171 2.431 . S
Dy160 O172 2.315 . S
Dy160 O174 2.354 1_565 S
Dy160 O179 2.340 1_565 S
Dy161 O168 2.354 . S
Dy161 O173 2.340 1_545 S
Dy161 O175 2.279 . S
Dy161 O176 2.444 . S
Dy161 O177 2.431 . S
Dy161 O178 2.315 . S
C162 O168 1.245 1_565 A
C162 O169 1.259 . A
C163 O170 1.248 . A
C163 O171 1.256 . A
C164 O172 1.257 . A
C164 O173 1.243 . A
C165 O174 1.245 . A
C165 O175 1.259 . A
C166 O176 1.248 . A
C166 O177 1.256 . A
C167 O178 1.257 . A
C167 O179 1.243 . A
Dy180 O189 2.279 . S
Dy180 O190 2.444 . S
Dy180 O191 2.431 . S
Dy180 O192 2.315 1_554 S
Dy180 O194 2.354 1_554 S
Dy180 O199 2.340 . S
Dy181 O188 2.354 1_556 S
Dy181 O193 2.340 . S
Dy181 O195 2.279 . S
Dy181 O196 2.444 1_556 S
Dy181 O197 2.431 . S
Dy181 O198 2.315 1_556 S
C182 O188 1.245 . A
C182 O189 1.259 . A
C183 O190 1.248 . A
C183 O191 1.256 . A
C184 O192 1.257 . A
C184 O193 1.243 . A
C185 O194 1.245 . A
C185 O195 1.259 . A
C186 O196 1.248 1_556 A
C186 O197 1.256 . A
C187 O198 1.257 . A
C187 O199 1.243 . A
Dy200 O209 2.279 . S
Dy200 O210 2.444 . S
Dy200 O211 2.431 . S
Dy200 O212 2.315 . S
Dy200 O214 2.354 . S
Dy200 O219 2.340 . S
Dy201 O208 2.354 . S
Dy201 O213 2.340 . S
Dy201 O215 2.279 . S
Dy201 O216 2.444 . S
Dy201 O217 2.431 . S
Dy201 O218 2.315 . S
C202 O208 1.245 . A
C202 O209 1.259 . A
C203 O210 1.248 . A
C203 O211 1.256 . A
C204 O212 1.257 . A
C204 O213 1.243 . A
C205 O214 1.245 . A
C205 O215 1.259 . A
C206 O216 1.248 . A
C206 O217 1.256 . A
C207 O218 1.257 . A
C207 O219 1.243 . A
Dy220 O229 2.279 . S
Dy220 O230 2.444 . S
Dy220 O231 2.431 . S
Dy220 O232 2.315 1_554 S
Dy220 O234 2.354 1_554 S
Dy220 O239 2.340 . S
Dy221 O228 2.354 1_556 S
Dy221 O233 2.340 . S
Dy221 O235 2.279 . S
Dy221 O236 2.444 1_556 S
Dy221 O237 2.431 . S
Dy221 O238 2.315 1_556 S
C222 O228 1.245 . A
C222 O229 1.259 . A
C223 O230 1.248 . A
C223 O231 1.256 . A
C224 O232 1.257 . A
C224 O233 1.243 . A
C225 O234 1.245 . A
C225 O235 1.259 . A
C226 O236 1.248 1_556 A
C226 O237 1.256 . A
C227 O238 1.257 . A
C227 O239 1.243 . A
Dy240 O249 2.279 . S
Dy240 O250 2.444 . S
Dy240 O251 2.431 . S
Dy240 O252 2.315 . S
Dy240 O254 2.354 . S
Dy240 O259 2.340 . S
Dy241 O248 2.354 . S
Dy241 O253 2.340 . S
Dy241 O255 2.279 . S
Dy241 O256 2.444 . S
Dy241 O257 2.431 . S
Dy241 O258 2.315 . S
C242 O248 1.245 . A
C242 O249 1.259 . A
C243 O250 1.248 . A
C243 O251 1.256 . A
C244 O252 1.257 . A
C244 O253 1.243 . A
C245 O254 1.245 . A
C245 O255 1.259 . A
C246 O256 1.248 . A
C246 O257 1.256 . A
C247 O258 1.257 . A
C247 O259 1.243 . A
Dy260 O269 2.279 . S
Dy260 O270 2.444 . S
Dy260 O271 2.431 . S
Dy260 O272 2.315 . S
Dy260 O274 2.354 . S
Dy260 O279 2.340 . S
Dy261 O268 2.354 . S
Dy261 O273 2.340 . S
Dy261 O275 2.279 . S
Dy261 O276 2.444 . S
Dy261 O277 2.431 . S
Dy261 O278 2.315 . S
C262 O268 1.245 . A
C262 O269 1.259 . A
C263 O270 1.248 . A
C263 O271 1.256 . A
C264 O272 1.257 . A
C264 O273 1.243 . A
C265 O274 1.245 . A
C265 O275 1.259 . A
C266 O276 1.248 . A
C266 O277 1.256 . A
C267 O278 1.257 . A
C267 O279 1.243 . A
Dy280 O289 2.279 . S
Dy280 O290 2.444 . S
Dy280 O291 2.431 . S
Dy280 O292 2.315 1_554 S
Dy280 O294 2.354 1_554 S
Dy280 O299 2.340 . S
Dy281 O288 2.354 1_556 S
Dy281 O293 2.340 . S
Dy281 O295 2.279 . S
Dy281 O296 2.445 . S
Dy281 O297 2.431 . S
Dy281 O298 2.315 1_556 S
C282 O288 1.245 . A
C282 O289 1.259 . A
C283 O290 1.248 . A
C283 O291 1.256 . A
C284 O292 1.257 . A
C284 O293 1.243 . A
C285 O294 1.245 . A
C285 O295 1.259 . A
C286 O296 1.249 . A
C286 O297 1.256 . A
C287 O298 1.257 . A
C287 O299 1.243 . A
Dy300 O309 2.279 1_655 S
Dy300 O310 2.444 . S
Dy300 O311 2.431 . S
Dy300 O312 2.315 1_655 S
Dy300 O314 2.354 . S
Dy300 O319 2.340 . S
Dy301 O308 2.354 . S
Dy301 O313 2.340 . S
Dy301 O315 2.279 . S
Dy301 O316 2.444 . S
Dy301 O317 2.431 . S
Dy301 O318 2.315 . S
C302 O308 1.245 . A
C302 O309 1.259 . A
C303 O310 1.248 . A
C303 O311 1.256 . A
C304 O312 1.257 . A
C304 O313 1.243 . A
C305 O314 1.245 . A
C305 O315 1.259 1_655 A
C306 O316 1.248 . A
C306 O317 1.256 . A
C307 O318 1.257 1_655 A
C307 O319 1.243 . A
N320 C321 1.191 . T
C321 O322 1.347 . S
O322 C323 1.373 . S
C323 C324 1.206 . D
C323 C325 1.540 . S
C325 C326 1.254 . D
C326 O327 1.419 . S
O327 C328 1.380 . S
C328 N329 1.131 . T
C326 C330 1.472 . S
C330 C331 1.446 . S
C331 C332 1.190 . T
C330 C333 1.335 . D
C333 O334 1.379 . S
O334 C335 1.382 . S
C335 N336 1.160 . T
C333 C325 1.485 . S
C324 H337 1.045 . S
N338 C339 1.192 . T
C339 O340 1.347 . S
O340 C341 1.373 . S
C341 C342 1.206 . D
C341 C343 1.540 . S
C343 C344 1.254 . D
C344 O345 1.419 . S
O345 C346 1.380 . S
C346 N347 1.131 . T
C344 C348 1.472 . S
C348 C349 1.446 . S
C349 C350 1.190 . T
C348 C351 1.335 . D
C351 O352 1.379 . S
O352 C353 1.382 . S
C353 N354 1.160 . T
C351 C343 1.485 . S
C342 H355 1.045 . S
N356 C357 1.192 . T
C357 O358 1.347 . S
O358 C359 1.373 . S
C359 C360 1.206 . D
C359 C361 1.540 . S
C361 C362 1.254 . D
C362 O363 1.419 . S
O363 C364 1.380 . S
C364 N365 1.131 . T
C362 C366 1.472 . S
C366 C367 1.446 . S
C367 C368 1.190 . T
C366 C369 1.335 . D
C369 O370 1.379 . S
O370 C371 1.382 . S
C371 N372 1.160 . T
C369 C361 1.485 . S
C360 H373 1.045 . S
N374 C375 1.192 . T
C375 O376 1.347 1_565 S
O376 C377 1.373 . S
C377 C378 1.206 . D
C377 C379 1.540 . S
C379 C380 1.254 . D
C380 O381 1.419 . S
O381 C382 1.380 1_545 S
C382 N383 1.131 . T
C380 C384 1.472 . S
C384 C385 1.446 . S
C385 C386 1.190 . T
C384 C387 1.335 . D
C387 O388 1.379 . S
O388 C389 1.382 . S
C389 N390 1.160 . T
C387 C379 1.485 . S
C378 H391 1.045 . S
N392 C393 1.192 . T
C393 O394 1.347 1_656 S
O394 C395 1.373 1_455 S
C395 C396 1.206 . D
C395 C397 1.540 . S
C397 C398 1.254 1_655 D
C398 O399 1.419 . S
O399 C400 1.380 1_455 S
C400 N401 1.131 . T
C398 C402 1.472 1_455 S
C402 C403 1.446 . S
C403 C404 1.190 . T
C402 C405 1.335 . D
C405 O406 1.379 . S
O406 C407 1.382 . S
C407 N408 1.160 . T
C405 C397 1.485 . S
C396 H409 1.045 . S
N410 C411 1.192 . T
C411 O412 1.347 . S
O412 C413 1.373 1_556 S
C413 C414 1.206 . D
C413 C415 1.540 . S
C415 C416 1.254 1_554 D
C416 O417 1.419 . S
O417 C418 1.380 . S
C418 N419 1.131 . T
C416 C420 1.472 1_556 S
C420 C421 1.446 . S
C421 C422 1.190 . T
C420 C423 1.335 . D
C423 O424 1.379 . S
O424 C425 1.382 . S
C425 N426 1.160 . T
C423 C415 1.485 . S
C414 H427 1.045 . S
N428 C429 1.192 . T
C429 O430 1.347 . S
O430 C431 1.373 . S
C431 C432 1.206 . D
C431 C433 1.540 . S
C433 C434 1.254 . D
C434 O435 1.419 . S
O435 C436 1.380 . S
C436 N437 1.131 . T
C434 C438 1.472 . S
C438 C439 1.446 . S
C439 C440 1.190 . T
C438 C441 1.335 . D
C441 O442 1.379 . S
O442 C443 1.382 . S
C443 N444 1.160 . T
C441 C433 1.485 . S
C432 H445 1.045 . S
N446 C447 1.192 . T
C447 O448 1.347 . S
O448 C449 1.373 . S
C449 C450 1.206 . D
C449 C451 1.540 . S
C451 C452 1.254 . D
C452 O453 1.419 . S
O453 C454 1.380 . S
C454 N455 1.131 . T
C452 C456 1.472 . S
C456 C457 1.446 . S
C457 C458 1.190 . T
C456 C459 1.335 . D
C459 O460 1.379 . S
O460 C461 1.382 . S
C461 N462 1.160 . T
C459 C451 1.485 . S
C450 H463 1.045 . S
N464 C465 1.192 . T
C465 O466 1.347 1_545 S
O466 C467 1.373 . S
C467 C468 1.206 . D
C467 C469 1.540 . S
C469 C470 1.254 . D
C470 O471 1.419 . S
O471 C472 1.380 . S
C472 N473 1.131 . T
C470 C474 1.472 . S
C474 C475 1.446 . S
C475 C476 1.190 . T
C474 C477 1.335 . D
C477 O478 1.379 . S
O478 C479 1.382 . S
C479 N480 1.160 . T
C477 C469 1.485 . S
C468 H481 1.045 . S
N482 C483 1.192 . T
C483 O484 1.347 . S
O484 C485 1.373 . S
C485 C486 1.206 . D
C485 C487 1.540 . S
C487 C488 1.254 . D
C488 O489 1.419 . S
O489 C490 1.380 . S
C490 N491 1.131 . T
C488 C492 1.472 . S
C492 C493 1.446 . S
C493 C494 1.190 . T
C492 C495 1.335 . D
C495 O496 1.379 . S
O496 C497 1.382 . S
C497 N498 1.160 . T
C495 C487 1.485 . S
C486 H499 1.045 . S
N500 C501 1.192 . T
C501 O502 1.347 1_544 S
O502 C503 1.373 1_565 S
C503 C504 1.206 . D
C503 C505 1.540 . S
C505 C506 1.254 . D
C506 O507 1.419 1_545 S
O507 C508 1.380 . S
C508 N509 1.131 1_565 T
C506 C510 1.472 . S
C510 C511 1.446 . S
C511 C512 1.190 . T
C510 C513 1.335 . D
C513 O514 1.379 . S
O514 C515 1.382 . S
C515 N516 1.160 . T
C513 C505 1.485 . S
C504 H517 1.045 . S
N518 C519 1.192 . T
C519 O520 1.347 . S
O520 C521 1.373 . S
C521 C522 1.206 . D
C521 C523 1.540 . S
C523 C524 1.254 . D
C524 O525 1.419 . S
O525 C526 1.380 . S
C526 N527 1.131 . T
C524 C528 1.472 . S
C528 C529 1.446 . S
C529 C530 1.190 . T
C528 C531 1.335 . D
C531 O532 1.379 . S
O532 C533 1.382 . S
C533 N534 1.160 . T
C531 C523 1.485 . S
C522 H535 1.045 . S
N536 C537 1.192 . T
C537 O538 1.347 . S
O538 C539 1.373 . S
C539 C540 1.206 . D
C539 C541 1.540 . S
C541 C542 1.254 . D
C542 O543 1.419 . S
O543 C544 1.380 . S
C544 N545 1.131 . T
C542 C546 1.472 . S
C546 C547 1.446 . S
C547 C548 1.190 . T
C546 C549 1.335 . D
C549 O550 1.379 . S
O550 C551 1.382 . S
C551 N552 1.160 . T
C549 C541 1.485 . S
C540 H553 1.045 . S
N554 C555 1.192 . T
C555 O556 1.347 . S
O556 C557 1.373 . S
C557 C558 1.206 . D
C557 C559 1.540 . S
C559 C560 1.254 . D
C560 O561 1.419 . S
O561 C562 1.380 . S
C562 N563 1.131 . T
C560 C564 1.472 . S
C564 C565 1.446 . S
C565 C566 1.190 . T
C564 C567 1.335 . D
C567 O568 1.379 . S
O568 C569 1.382 . S
C569 N570 1.160 . T
C567 C559 1.485 . S
C558 H571 1.045 . S
N572 C573 1.192 . T
C573 O574 1.347 . S
O574 C575 1.373 . S
C575 C576 1.206 . D
C575 C577 1.540 . S
C577 C578 1.254 . D
C578 O579 1.419 . S
O579 C580 1.380 . S
C580 N581 1.131 . T
C578 C582 1.472 . S
C582 C583 1.446 . S
C583 C584 1.190 . T
C582 C585 1.335 . D
C585 O586 1.379 1_545 S
O586 C587 1.382 . S
C587 N588 1.160 . T
C585 C577 1.485 . S
C576 H589 1.045 1_545 S
N590 C591 1.192 . T
C591 O592 1.347 . S
O592 C593 1.373 . S
C593 C594 1.206 . D
C593 C595 1.540 . S
C595 C596 1.254 . D
C596 O597 1.419 . S
O597 C598 1.380 . S
C598 N599 1.131 . T
C596 C600 1.472 . S
C600 C601 1.446 . S
C601 C602 1.190 . T
C600 C603 1.335 . D
C603 O604 1.379 . S
O604 C605 1.382 . S
C605 N606 1.160 . T
C603 C595 1.485 . S
C594 H607 1.045 . S
N608 C609 1.192 . T
C609 O610 1.347 . S
O610 C611 1.373 . S
C611 C612 1.206 . D
C611 C613 1.540 . S
C613 C614 1.254 . D
C614 O615 1.419 . S
O615 C616 1.380 . S
C616 N617 1.131 . T
C614 C618 1.472 . S
C618 C619 1.446 . S
C619 C620 1.190 . T
C618 C621 1.335 . D
C621 O622 1.379 1_554 S
O622 C623 1.382 . S
C623 N624 1.160 . T
C621 C613 1.485 . S
C612 H625 1.045 . S
N626 C627 1.192 . T
C627 O628 1.347 . S
O628 C629 1.373 . S
C629 C630 1.206 . D
C629 C631 1.540 . S
C631 C632 1.254 . D
C632 O633 1.419 . S
O633 C634 1.380 . S
C634 N635 1.131 . T
C632 C636 1.472 . S
C636 C637 1.446 . S
C637 C638 1.190 . T
C636 C639 1.335 . D
C639 O640 1.379 . S
O640 C641 1.382 . S
C641 N642 1.160 . T
C639 C631 1.485 . S
C630 H643 1.045 . S
N644 C645 1.192 . T
C645 O646 1.347 . S
O646 C647 1.373 . S
C647 C648 1.206 . D
C647 C649 1.540 . S
C649 C650 1.254 . D
C650 O651 1.419 . S
O651 C652 1.380 . S
C652 N653 1.131 . T
C650 C654 1.472 . S
C654 C655 1.446 . S
C655 C656 1.190 . T
C654 C657 1.335 . D
C657 O658 1.379 . S
O658 C659 1.382 . S
C659 N660 1.160 . T
C657 C649 1.485 . S
C648 H661 1.045 . S
N662 C663 1.192 . T
C663 O664 1.347 . S
O664 C665 1.373 . S
C665 C666 1.206 . D
C665 C667 1.540 . S
C667 C668 1.254 . D
C668 O669 1.419 . S
O669 C670 1.380 . S
C670 N671 1.131 . T
C668 C672 1.472 . S
C672 C673 1.446 . S
C673 C674 1.190 . T
C672 C675 1.335 . D
C675 O676 1.379 . S
O676 C677 1.382 . S
C677 N678 1.160 . T
C675 C667 1.485 . S
C666 H679 1.045 . S
N680 C681 1.192 . T
C681 O682 1.347 . S
O682 C683 1.373 . S
C683 C684 1.206 . D
C683 C685 1.540 . S
C685 C686 1.254 . D
C686 O687 1.419 . S
O687 C688 1.380 . S
C688 N689 1.131 . T
C686 C690 1.472 . S
C690 C691 1.446 . S
C691 C692 1.190 . T
C690 C693 1.335 . D
C693 O694 1.379 . S
O694 C695 1.382 . S
C695 N696 1.160 . T
C693 C685 1.485 . S
C684 H697 1.045 . S
N698 C699 1.192 . T
C699 O700 1.347 . S
O700 C701 1.373 . S
C701 C702 1.206 . D
C701 C703 1.540 . S
C703 C704 1.254 . D
C704 O705 1.419 . S
O705 C706 1.380 . S
C706 N707 1.131 . T
C704 C708 1.472 . S
C708 C709 1.446 . S
C709 C710 1.190 . T
C708 C711 1.335 . D
C711 O712 1.379 . S
O712 C713 1.382 . S
C713 N714 1.160 . T
C711 C703 1.485 . S
C702 H715 1.045 . S
N716 C717 1.192 . T
C717 O718 1.347 . S
O718 C719 1.373 . S
C719 C720 1.206 . D
C719 C721 1.540 . S
C721 C722 1.254 . D
C722 O723 1.419 . S
O723 C724 1.380 . S
C724 N725 1.131 . T
C722 C726 1.472 . S
C726 C727 1.446 . S
C727 C728 1.190 . T
C726 C729 1.335 . D
C729 O730 1.379 . S
O730 C731 1.382 . S
C731 N732 1.160 . T
C729 C721 1.485 . S
C720 H733 1.045 . S
N734 C735 1.192 . T
C735 O736 1.347 . S
O736 C737 1.373 . S
C737 C738 1.206 . D
C737 C739 1.540 . S
C739 C740 1.254 . D
C740 O741 1.419 . S
O741 C742 1.380 . S
C742 N743 1.131 . T
C740 C744 1.472 . S
C744 C745 1.446 . S
C745 C746 1.190 . T
C744 C747 1.335 . D
C747 O748 1.379 . S
O748 C749 1.382 . S
C749 N750 1.160 . T
C747 C739 1.485 . S
C738 H751 1.045 . S
N752 C753 1.192 . T
C753 O754 1.347 . S
O754 C755 1.373 . S
C755 C756 1.206 1_554 D
C755 C757 1.545 . S
C757 C758 1.264 . D
C758 O759 1.419 . S
O759 C760 1.380 . S
C760 N761 1.131 . T
C758 C762 1.472 1_554 S
C762 C763 1.446 . S
C763 C764 1.190 . T
C762 C765 1.335 . D
C765 O766 1.379 . S
O766 C767 1.382 . S
C767 N768 1.160 . T
C765 C757 1.466 1_556 S
C756 H769 1.045 . S
N770 C771 1.192 . T
C771 O772 1.347 . S
O772 C773 1.373 . S
C773 C774 1.206 . D
C773 C775 1.540 . S
C775 C776 1.254 . D
C776 O777 1.419 . S
O777 C778 1.380 . S
C778 N779 1.131 . T
C776 C780 1.472 . S
C780 C781 1.446 . S
C781 C782 1.190 . T
C780 C783 1.335 . D
C783 O784 1.379 . S
O784 C785 1.382 . S
C785 N786 1.160 . T
C783 C775 1.485 . S
C774 H787 1.045 . S
N788 C789 1.192 . T
C789 O790 1.347 . S
O790 C791 1.373 . S
C791 C792 1.206 . D
C791 C793 1.540 . S
C793 C794 1.254 . D
C794 O795 1.419 . S
O795 C796 1.380 . S
C796 N797 1.131 . T
C794 C798 1.472 . S
C798 C799 1.446 . S
C799 C800 1.190 . T
C798 C801 1.335 . D
C801 O802 1.379 . S
O802 C803 1.382 . S
C803 N804 1.160 . T
C801 C793 1.485 . S
C792 H805 1.045 . S
N806 C807 1.192 . T
C807 O808 1.347 . S
O808 C809 1.373 . S
C809 C810 1.206 . D
C809 C811 1.540 . S
C811 C812 1.254 . D
C812 O813 1.419 . S
O813 C814 1.380 . S
C814 N815 1.131 . T
C812 C816 1.472 . S
C816 C817 1.446 . S
C817 C818 1.190 . T
C816 C819 1.335 . D
C819 O820 1.379 . S
O820 C821 1.382 . S
C821 N822 1.160 . T
C819 C811 1.485 . S
C810 H823 1.045 . S
N824 C825 1.192 . T
C825 O826 1.347 . S
O826 C827 1.373 . S
C827 C828 1.206 . D
C827 C829 1.540 . S
C829 C830 1.254 . D
C830 O831 1.419 . S
O831 C832 1.380 . S
C832 N833 1.131 . T
C830 C834 1.472 . S
C834 C835 1.446 . S
C835 C836 1.190 . T
C834 C837 1.335 . D
C837 O838 1.379 . S
O838 C839 1.382 . S
C839 N840 1.160 . T
C837 C829 1.485 . S
C828 H841 1.045 . S
N842 C843 1.192 . T
C843 O844 1.347 . S
O844 C845 1.373 . S
C845 C846 1.206 . D
C845 C847 1.540 . S
C847 C848 1.254 . D
C848 O849 1.419 . S
O849 C850 1.380 . S
C850 N851 1.131 . T
C848 C852 1.472 . S
C852 C853 1.446 . S
C853 C854 1.190 . T
C852 C855 1.335 . D
C855 O856 1.379 . S
O856 C857 1.382 . S
C857 N858 1.160 . T
C855 C847 1.485 . S
C846 H859 1.045 . S
N860 C861 1.192 . T
C861 O862 1.347 . S
O862 C863 1.373 . S
C863 C864 1.206 . D
C863 C865 1.540 . S
C865 C866 1.254 . D
C866 O867 1.419 . S
O867 C868 1.380 . S
C868 N869 1.131 . T
C866 C870 1.472 . S
C870 C871 1.446 . S
C871 C872 1.190 . T
C870 C873 1.335 . D
C873 O874 1.379 . S
O874 C875 1.382 . S
C875 N876 1.160 . T
C873 C865 1.485 . S
C864 H877 1.045 . S
N878 C879 1.195 . T
C879 O880 1.347 . S
O880 C881 1.373 . S
C881 C882 1.206 . D
C881 C883 1.540 . S
C883 C884 1.254 . D
C884 O885 1.419 . S
O885 C886 1.380 . S
C886 N887 1.131 . T
C884 C888 1.472 . S
C888 C889 1.446 . S
C889 C890 1.190 . T
C888 C891 1.335 . D
C891 O892 1.379 . S
O892 C893 1.382 1_455 S
C893 N894 1.160 . T
C891 C883 1.485 . S
C882 H895 1.045 . S
N896 C897 1.192 . T
C897 O898 1.347 . S
O898 C899 1.373 . S
C899 C900 1.206 . D
C899 C901 1.540 . S
C901 C902 1.254 . D
C902 O903 1.419 . S
O903 C904 1.380 . S
C904 N905 1.131 . T
C902 C906 1.472 . S
C906 C907 1.446 . S
C907 C908 1.190 . T
C906 C909 1.335 . D
C909 O910 1.379 . S
O910 C911 1.382 . S
C911 N912 1.160 . T
C909 C901 1.485 . S
C900 H913 1.045 . S
N914 C915 1.192 . T
C915 O916 1.347 . S
O916 C917 1.373 . S
C917 C918 1.206 . D
C917 C919 1.540 . S
C919 C920 1.254 . D
C920 O921 1.419 . S
O921 C922 1.380 . S
C922 N923 1.131 . T
C920 C924 1.472 . S
C924 C925 1.446 . S
C925 C926 1.190 . T
C924 C927 1.335 . D
C927 O928 1.379 . S
O928 C929 1.382 . S
C929 N930 1.160 . T
C927 C919 1.485 . S
C918 H931 1.045 . S
N932 C933 1.192 . T
C933 O934 1.347 . S
O934 C935 1.373 . S
C935 C936 1.206 . D
C935 C937 1.540 . S
C937 C938 1.254 . D
C938 O939 1.419 . S
O939 C940 1.380 . S
C940 N941 1.131 . T
C938 C942 1.472 . S
C942 C943 1.446 . S
C943 C944 1.190 . T
C942 C945 1.335 . D
C945 O946 1.379 . S
O946 C947 1.382 . S
C947 N948 1.160 . T
C945 C937 1.485 . S
C936 H949 1.045 . S
N950 C951 1.192 . T
C951 O952 1.347 . S
O952 C953 1.373 . S
C953 C954 1.206 . D
C953 C955 1.540 . S
C955 C956 1.254 . D
C956 O957 1.419 . S
O957 C958 1.380 . S
C958 N959 1.131 . T
C956 C960 1.472 . S
C960 C961 1.446 . S
C961 C962 1.190 . T
C960 C963 1.335 . D
C963 O964 1.379 . S
O964 C965 1.382 . S
C965 N966 1.160 . T
C963 C955 1.485 . S
C954 H967 1.045 . S
N968 C969 1.192 . T
C969 O970 1.347 . S
O970 C971 1.373 . S
C971 C972 1.206 . D
C971 C973 1.540 . S
C973 C974 1.254 . D
C974 O975 1.419 . S
O975 C976 1.380 . S
C976 N977 1.131 . T
C974 C978 1.472 . S
C978 C979 1.446 . S
C979 C980 1.190 . T
C978 C981 1.335 . D
C981 O982 1.379 . S
O982 C983 1.382 . S
C983 N984 1.160 . T
C981 C973 1.485 . S
C972 H985 1.045 . S
N986 C987 1.192 . T
C987 O988 1.347 . S
O988 C989 1.373 . S
C989 C990 1.206 . D
C989 C991 1.540 . S
C991 C992 1.254 . D
C992 O993 1.419 . S
O993 C994 1.380 . S
C994 N995 1.131 . T
C992 C996 1.472 . S
C996 C997 1.446 . S
C997 C998 1.190 . T
C996 C999 1.335 . D
C999 O1000 1.379 1_455 S
O1000 C1001 1.382 . S
C1001 N1002 1.160 . T
C999 C991 1.485 . S
C990 H1003 1.045 . S
N1004 C1005 1.192 . T
C1005 O1006 1.347 . S
O1006 C1007 1.373 . S
C1007 C1008 1.206 . D
C1007 C1009 1.540 . S
C1009 C1010 1.254 . D
C1010 O1011 1.419 . S
O1011 C1012 1.380 . S
C1012 N1013 1.131 . T
C1010 C1014 1.472 . S
C1014 C1015 1.446 . S
C1015 C1016 1.190 . T
C1014 C1017 1.335 . D
C1017 O1018 1.379 . S
O1018 C1019 1.382 . S
C1019 N1020 1.160 . T
C1017 C1009 1.485 . S
C1008 H1021 1.045 . S
N1022 C1023 1.192 . T
C1023 O1024 1.347 . S
O1024 C1025 1.373 . S
C1025 C1026 1.206 . D
C1025 C1027 1.540 . S
C1027 C1028 1.254 . D
C1028 O1029 1.419 . S
O1029 C1030 1.380 . S
C1030 N1031 1.131 . T
C1028 C1032 1.472 . S
C1032 C1033 1.446 . S
C1033 C1034 1.190 . T
C1032 C1035 1.335 . D
C1035 O1036 1.379 . S
O1036 C1037 1.382 . S
C1037 N1038 1.160 . T
C1035 C1027 1.485 . S
C1026 H1039 1.045 . S
N1040 C1041 1.192 . T
C1041 O1042 1.347 . S
O1042 C1043 1.373 1_655 S
C1043 C1044 1.206 . D
C1043 C1045 1.546 . S
C1045 C1046 1.242 1_455 D
C1046 O1047 1.419 . S
O1047 C1048 1.380 . S
C1048 N1049 1.131 . T
C1046 C1050 1.472 1_655 S
C1050 C1051 1.441 1_455 S
C1051 C1052 1.196 . T
C1050 C1053 1.335 . D
C1053 O1054 1.379 . S
O1054 C1055 1.382 . S
C1055 N1056 1.160 . T
C1053 C1045 1.490 . S
C1044 H1057 1.045 . S
N1058 C1059 1.192 . T
C1059 O1060 1.347 . S
O1060 C1061 1.373 . S
C1061 C1062 1.206 . D
C1061 C1063 1.540 . S
C1063 C1064 1.254 . D
C1064 O1065 1.419 . S
O1065 C1066 1.380 . S
C1066 N1067 1.131 . T
C1064 C1068 1.472 . S
C1068 C1069 1.446 . S
C1069 C1070 1.190 . T
C1068 C1071 1.335 . D
C1071 O1072 1.379 . S
O1072 C1073 1.382 . S
C1073 N1074 1.160 . T
C1071 C1063 1.485 . S
C1062 H1075 1.045 . S
N1076 C1077 1.192 . T
C1077 O1078 1.347 . S
O1078 C1079 1.373 . S
C1079 C1080 1.206 1_545 D
C1079 C1081 1.540 . S
C1081 C1082 1.254 . D
C1082 O1083 1.419 . S
O1083 C1084 1.380 . S
C1084 N1085 1.131 . T
C1082 C1086 1.472 1_545 S
C1086 C1087 1.446 . S
C1087 C1088 1.190 . T
C1086 C1089 1.335 . D
C1089 O1090 1.379 . S
O1090 C1091 1.382 . S
C1091 N1092 1.160 . T
C1089 C1081 1.485 1_565 S
C1080 H1093 1.045 . S
N1094 C1095 1.192 . T
C1095 O1096 1.347 . S
O1096 C1097 1.373 . S
C1097 C1098 1.206 . D
C1097 C1099 1.540 . S
C1099 C1100 1.254 . D
C1100 O1101 1.419 . S
O1101 C1102 1.380 . S
C1102 N1103 1.131 . T
C1100 C1104 1.472 . S
C1104 C1105 1.446 . S
C1105 C1106 1.190 . T
C1104 C1107 1.335 . D
C1107 O1108 1.379 . S
O1108 C1109 1.382 . S
C1109 N1110 1.160 . T
C1107 C1099 1.485 . S
C1098 H1111 1.045 . S
N1112 C1113 1.192 1_554 T
C1113 O1114 1.347 . S
O1114 C1115 1.373 . S
C1115 C1116 1.206 . D
C1115 C1117 1.540 . S
C1117 C1118 1.254 . D
C1118 O1119 1.419 . S
O1119 C1120 1.380 . S
C1120 N1121 1.131 . T
C1118 C1122 1.472 . S
C1122 C1123 1.446 . S
C1123 C1124 1.190 . T
C1122 C1125 1.335 . D
C1125 O1126 1.379 . S
O1126 C1127 1.382 . S
C1127 N1128 1.160 . T
C1125 C1117 1.485 . S
C1116 H1129 1.045 . S
N1130 C1131 1.192 . T
C1131 O1132 1.347 . S
O1132 C1133 1.373 . S
C1133 C1134 1.206 . D
C1133 C1135 1.540 . S
C1135 C1136 1.254 . D
C1136 O1137 1.419 . S
O1137 C1138 1.380 . S
C1138 N1139 1.131 . T
C1136 C1140 1.472 . S
C1140 C1141 1.446 . S
C1141 C1142 1.190 . T
C1140 C1143 1.335 . D
C1143 O1144 1.379 1_556 S
O1144 C1145 1.382 . S
C1145 N1146 1.160 . T
C1143 C1135 1.485 . S
C1134 H1147 1.045 1_556 S
N1148 C1149 1.192 . T
C1149 O1150 1.347 . S
O1150 C1151 1.373 . S
C1151 C1152 1.206 . D
C1151 C1153 1.540 . S
C1153 C1154 1.254 . D
C1154 O1155 1.419 . S
O1155 C1156 1.380 . S
C1156 N1157 1.131 . T
C1154 C1158 1.472 . S
C1158 C1159 1.446 . S
C1159 C1160 1.190 . T
C1158 C1161 1.335 . D
C1161 O1162 1.379 . S
O1162 C1163 1.382 . S
C1163 N1164 1.160 . T
C1161 C1153 1.485 . S
C1152 H1165 1.045 . S
N1166 C1167 1.192 . T
C1167 O1168 1.347 . S
O1168 C1169 1.373 . S
C1169 C1170 1.206 . D
C1169 C1171 1.540 . S
C1171 C1172 1.254 . D
C1172 O1173 1.419 . S
O1173 C1174 1.380 . S
C1174 N1175 1.131 . T
C1172 C1176 1.472 . S
C1176 C1177 1.446 . S
C1177 C1178 1.190 . T
C1176 C1179 1.335 . D
C1179 O1180 1.379 . S
O1180 C1181 1.382 . S
C1181 N1182 1.160 . T
C1179 C1171 1.485 . S
C1170 H1183 1.045 . S
C324 C4 1.235 . S
C332 C187 1.204 . S
C342 C225 1.372 . S
C350 C24 1.567 . S
C360 C204 1.632 . S
C368 C47 1.648 . S
C378 C165 0.686 . S
C386 C6 0.564 . S
C396 C65 0.966 . S
C404 C146 1.065 . S
C414 C223 0.575 . S
C422 C66 0.358 . S
C432 C85 1.045 . S
C440 C202 0.921 . S
C450 C87 0.974 . S
C458 C102 0.802 . S
C468 C127 1.195 . S
C476 C224 1.205 . S
C486 C147 1.510 . S
C494 C182 1.306 . S
C504 C67 0.938 . S
C512 C126 0.895 . S
C522 C144 1.012 . S
C530 C105 0.836 . S
C540 C107 1.700 . S
C548 C124 1.687 . S
C558 C44 1.696 . S
C566 C7 1.690 . S
C576 C3 0.900 . S
C584 C64 0.934 1_545 S
C594 C166 0.586 . S
C602 C106 0.394 . S
C612 C183 0.346 . S
C620 C283 0.347 . S
C630 C22 0.951 . S
C638 C205 0.998 . S
C648 C5 0.900 . S
C656 C142 1.021 . S
C666 C244 1.100 . S
C674 C45 0.870 . S
C684 C264 1.694 . S
C692 C227 1.699 . S
C702 C86 1.174 . S
C710 C167 1.178 . S
C720 C43 0.479 . S
C728 C163 0.377 . S
C738 C145 0.929 . S
C746 C262 1.014 . S
C756 C186 0.214 . S
C764 C63 0.390 . S
C774 C84 1.105 . S
C782 C185 0.850 . S
C792 C305 0.859 . S
C800 C266 0.798 . S
C810 C287 1.160 . S
C818 C246 1.078 . S
C828 C122 1.017 . S
C836 C25 0.971 . S
C846 C306 0.513 . S
C854 C46 0.466 . S
C864 C2 1.064 . S
C872 C245 0.951 . S
C882 C62 0.741 . S
C890 C23 1.039 . S
C900 C42 0.811 . S
C908 C27 0.997 . S
C918 C302 0.673 . S
C926 C203 0.813 . S
C936 C247 1.106 . S
C944 C222 0.857 . S
C954 C104 1.641 . S
C962 C267 1.636 . S
C972 C263 0.759 . S
C980 C282 0.618 . S
C990 C304 1.399 . S
C998 C143 1.322 . S
C1008 C82 0.916 . S
C1016 C125 0.961 . S
C1026 C184 1.695 . S
C1034 C207 1.721 . S
C1044 C26 1.368 . S
C1052 C307 1.407 . S
C1062 C242 0.924 . S
C1070 C265 0.977 . S
C1080 C123 0.551 . S
C1088 C162 0.467 . S
C1098 C83 1.174 . S
C1106 C284 1.190 . S
C1116 C285 0.874 . S
C1124 C206 0.814 . S
C1134 C286 0.559 . S
C1142 C226 0.370 . S
C1152 C103 0.392 . S
C1160 C303 0.370 . S
C1170 C243 1.143 . S
C1178 C164 1.185 . S
