# Generated by pormake.
# Topology ana, (4)-cn, num edge types: 1
# Building blocks:
#     Node 0, Type 0, BuildingBlock: N398, # of connection points: 4
#     Node 1, Type 0, BuildingBlock: N398, # of connection points: 4
#     Node 2, Type 0, BuildingBlock: N398, # of connection points: 4
#     Node 3, Type 0, BuildingBlock: N398, # of connection points: 4
#     Node 4, Type 0, BuildingBlock: N398, # of connection points: 4
#     Node 5, Type 0, BuildingBlock: N398, # of connection points: 4
#     Node 6, Type 0, BuildingBlock: N398, # of connection points: 4
#     Node 7, Type 0, BuildingBlock: N398, # of connection points: 4
#     Node 8, Type 0, BuildingBlock: N398, # of connection points: 4
#     Node 9, Type 0, BuildingBlock: N398, # of connection points: 4
#     Node 10, Type 0, BuildingBlock: N398, # of connection points: 4
#     Node 11, Type 0, BuildingBlock: N398, # of connection points: 4
#     Node 12, Type 0, BuildingBlock: N398, # of connection points: 4
#     Node 13, Type 0, BuildingBlock: N398, # of connection points: 4
#     Node 14, Type 0, BuildingBlock: N398, # of connection points: 4
#     Node 15, Type 0, BuildingBlock: N398, # of connection points: 4
#     Node 16, Type 0, BuildingBlock: N398, # of connection points: 4
#     Node 17, Type 0, BuildingBlock: N398, # of connection points: 4
#     Node 18, Type 0, BuildingBlock: N398, # of connection points: 4
#     Node 19, Type 0, BuildingBlock: N398, # of connection points: 4
#     Node 20, Type 0, BuildingBlock: N398, # of connection points: 4
#     Node 21, Type 0, BuildingBlock: N398, # of connection points: 4
#     Node 22, Type 0, BuildingBlock: N398, # of connection points: 4
#     Node 23, Type 0, BuildingBlock: N398, # of connection points: 4
#     Node 24, Type 0, BuildingBlock: N398, # of connection points: 4
#     Node 25, Type 0, BuildingBlock: N398, # of connection points: 4
#     Node 26, Type 0, BuildingBlock: N398, # of connection points: 4
#     Node 27, Type 0, BuildingBlock: N398, # of connection points: 4
#     Node 28, Type 0, BuildingBlock: N398, # of connection points: 4
#     Node 29, Type 0, BuildingBlock: N398, # of connection points: 4
#     Node 30, Type 0, BuildingBlock: N398, # of connection points: 4
#     Node 31, Type 0, BuildingBlock: N398, # of connection points: 4
#     Node 32, Type 0, BuildingBlock: N398, # of connection points: 4
#     Node 33, Type 0, BuildingBlock: N398, # of connection points: 4
#     Node 34, Type 0, BuildingBlock: N398, # of connection points: 4
#     Node 35, Type 0, BuildingBlock: N398, # of connection points: 4
#     Node 36, Type 0, BuildingBlock: N398, # of connection points: 4
#     Node 37, Type 0, BuildingBlock: N398, # of connection points: 4
#     Node 38, Type 0, BuildingBlock: N398, # of connection points: 4
#     Node 39, Type 0, BuildingBlock: N398, # of connection points: 4
#     Node 40, Type 0, BuildingBlock: N398, # of connection points: 4
#     Node 41, Type 0, BuildingBlock: N398, # of connection points: 4
#     Node 42, Type 0, BuildingBlock: N398, # of connection points: 4
#     Node 43, Type 0, BuildingBlock: N398, # of connection points: 4
#     Node 44, Type 0, BuildingBlock: N398, # of connection points: 4
#     Node 45, Type 0, BuildingBlock: N398, # of connection points: 4
#     Node 46, Type 0, BuildingBlock: N398, # of connection points: 4
#     Node 47, Type 0, BuildingBlock: N398, # of connection points: 4
#     Edge 48, Type (0, 0), BuildingBlock: NC(=O)C1=C=C([Fr])C=CN1[Fr], # of connection points: 2
#     Edge 49, Type (0, 0), BuildingBlock: NC(=O)C1=C=C([Fr])C=CN1[Fr], # of connection points: 2
#     Edge 50, Type (0, 0), BuildingBlock: NC(=O)C1=C=C([Fr])C=CN1[Fr], # of connection points: 2
#     Edge 51, Type (0, 0), BuildingBlock: NC(=O)C1=C=C([Fr])C=CN1[Fr], # of connection points: 2
#     Edge 52, Type (0, 0), BuildingBlock: NC(=O)C1=C=C([Fr])C=CN1[Fr], # of connection points: 2
#     Edge 53, Type (0, 0), BuildingBlock: NC(=O)C1=C=C([Fr])C=CN1[Fr], # of connection points: 2
#     Edge 54, Type (0, 0), BuildingBlock: NC(=O)C1=C=C([Fr])C=CN1[Fr], # of connection points: 2
#     Edge 55, Type (0, 0), BuildingBlock: NC(=O)C1=C=C([Fr])C=CN1[Fr], # of connection points: 2
#     Edge 56, Type (0, 0), BuildingBlock: NC(=O)C1=C=C([Fr])C=CN1[Fr], # of connection points: 2
#     Edge 57, Type (0, 0), BuildingBlock: NC(=O)C1=C=C([Fr])C=CN1[Fr], # of connection points: 2
#     Edge 58, Type (0, 0), BuildingBlock: NC(=O)C1=C=C([Fr])C=CN1[Fr], # of connection points: 2
#     Edge 59, Type (0, 0), BuildingBlock: NC(=O)C1=C=C([Fr])C=CN1[Fr], # of connection points: 2
#     Edge 60, Type (0, 0), BuildingBlock: NC(=O)C1=C=C([Fr])C=CN1[Fr], # of connection points: 2
#     Edge 61, Type (0, 0), BuildingBlock: NC(=O)C1=C=C([Fr])C=CN1[Fr], # of connection points: 2
#     Edge 62, Type (0, 0), BuildingBlock: NC(=O)C1=C=C([Fr])C=CN1[Fr], # of connection points: 2
#     Edge 63, Type (0, 0), BuildingBlock: NC(=O)C1=C=C([Fr])C=CN1[Fr], # of connection points: 2
#     Edge 64, Type (0, 0), BuildingBlock: NC(=O)C1=C=C([Fr])C=CN1[Fr], # of connection points: 2
#     Edge 65, Type (0, 0), BuildingBlock: NC(=O)C1=C=C([Fr])C=CN1[Fr], # of connection points: 2
#     Edge 66, Type (0, 0), BuildingBlock: NC(=O)C1=C=C([Fr])C=CN1[Fr], # of connection points: 2
#     Edge 67, Type (0, 0), BuildingBlock: NC(=O)C1=C=C([Fr])C=CN1[Fr], # of connection points: 2
#     Edge 68, Type (0, 0), BuildingBlock: NC(=O)C1=C=C([Fr])C=CN1[Fr], # of connection points: 2
#     Edge 69, Type (0, 0), BuildingBlock: NC(=O)C1=C=C([Fr])C=CN1[Fr], # of connection points: 2
#     Edge 70, Type (0, 0), BuildingBlock: NC(=O)C1=C=C([Fr])C=CN1[Fr], # of connection points: 2
#     Edge 71, Type (0, 0), BuildingBlock: NC(=O)C1=C=C([Fr])C=CN1[Fr], # of connection points: 2
#     Edge 72, Type (0, 0), BuildingBlock: NC(=O)C1=C=C([Fr])C=CN1[Fr], # of connection points: 2
#     Edge 73, Type (0, 0), BuildingBlock: NC(=O)C1=C=C([Fr])C=CN1[Fr], # of connection points: 2
#     Edge 74, Type (0, 0), BuildingBlock: NC(=O)C1=C=C([Fr])C=CN1[Fr], # of connection points: 2
#     Edge 75, Type (0, 0), BuildingBlock: NC(=O)C1=C=C([Fr])C=CN1[Fr], # of connection points: 2
#     Edge 76, Type (0, 0), BuildingBlock: NC(=O)C1=C=C([Fr])C=CN1[Fr], # of connection points: 2
#     Edge 77, Type (0, 0), BuildingBlock: NC(=O)C1=C=C([Fr])C=CN1[Fr], # of connection points: 2
#     Edge 78, Type (0, 0), BuildingBlock: NC(=O)C1=C=C([Fr])C=CN1[Fr], # of connection points: 2
#     Edge 79, Type (0, 0), BuildingBlock: NC(=O)C1=C=C([Fr])C=CN1[Fr], # of connection points: 2
#     Edge 80, Type (0, 0), BuildingBlock: NC(=O)C1=C=C([Fr])C=CN1[Fr], # of connection points: 2
#     Edge 81, Type (0, 0), BuildingBlock: NC(=O)C1=C=C([Fr])C=CN1[Fr], # of connection points: 2
#     Edge 82, Type (0, 0), BuildingBlock: NC(=O)C1=C=C([Fr])C=CN1[Fr], # of connection points: 2
#     Edge 83, Type (0, 0), BuildingBlock: NC(=O)C1=C=C([Fr])C=CN1[Fr], # of connection points: 2
#     Edge 84, Type (0, 0), BuildingBlock: NC(=O)C1=C=C([Fr])C=CN1[Fr], # of connection points: 2
#     Edge 85, Type (0, 0), BuildingBlock: NC(=O)C1=C=C([Fr])C=CN1[Fr], # of connection points: 2
#     Edge 86, Type (0, 0), BuildingBlock: NC(=O)C1=C=C([Fr])C=CN1[Fr], # of connection points: 2
#     Edge 87, Type (0, 0), BuildingBlock: NC(=O)C1=C=C([Fr])C=CN1[Fr], # of connection points: 2
#     Edge 88, Type (0, 0), BuildingBlock: NC(=O)C1=C=C([Fr])C=CN1[Fr], # of connection points: 2
#     Edge 89, Type (0, 0), BuildingBlock: NC(=O)C1=C=C([Fr])C=CN1[Fr], # of connection points: 2
#     Edge 90, Type (0, 0), BuildingBlock: NC(=O)C1=C=C([Fr])C=CN1[Fr], # of connection points: 2
#     Edge 91, Type (0, 0), BuildingBlock: NC(=O)C1=C=C([Fr])C=CN1[Fr], # of connection points: 2
#     Edge 92, Type (0, 0), BuildingBlock: NC(=O)C1=C=C([Fr])C=CN1[Fr], # of connection points: 2
#     Edge 93, Type (0, 0), BuildingBlock: NC(=O)C1=C=C([Fr])C=CN1[Fr], # of connection points: 2
#     Edge 94, Type (0, 0), BuildingBlock: NC(=O)C1=C=C([Fr])C=CN1[Fr], # of connection points: 2
#     Edge 95, Type (0, 0), BuildingBlock: NC(=O)C1=C=C([Fr])C=CN1[Fr], # of connection points: 2
#     Edge 96, Type (0, 0), BuildingBlock: NC(=O)C1=C=C([Fr])C=CN1[Fr], # of connection points: 2
#     Edge 97, Type (0, 0), BuildingBlock: NC(=O)C1=C=C([Fr])C=CN1[Fr], # of connection points: 2
#     Edge 98, Type (0, 0), BuildingBlock: NC(=O)C1=C=C([Fr])C=CN1[Fr], # of connection points: 2
#     Edge 99, Type (0, 0), BuildingBlock: NC(=O)C1=C=C([Fr])C=CN1[Fr], # of connection points: 2
#     Edge 100, Type (0, 0), BuildingBlock: NC(=O)C1=C=C([Fr])C=CN1[Fr], # of connection points: 2
#     Edge 101, Type (0, 0), BuildingBlock: NC(=O)C1=C=C([Fr])C=CN1[Fr], # of connection points: 2
#     Edge 102, Type (0, 0), BuildingBlock: NC(=O)C1=C=C([Fr])C=CN1[Fr], # of connection points: 2
#     Edge 103, Type (0, 0), BuildingBlock: NC(=O)C1=C=C([Fr])C=CN1[Fr], # of connection points: 2
#     Edge 104, Type (0, 0), BuildingBlock: NC(=O)C1=C=C([Fr])C=CN1[Fr], # of connection points: 2
#     Edge 105, Type (0, 0), BuildingBlock: NC(=O)C1=C=C([Fr])C=CN1[Fr], # of connection points: 2
#     Edge 106, Type (0, 0), BuildingBlock: NC(=O)C1=C=C([Fr])C=CN1[Fr], # of connection points: 2
#     Edge 107, Type (0, 0), BuildingBlock: NC(=O)C1=C=C([Fr])C=CN1[Fr], # of connection points: 2
#     Edge 108, Type (0, 0), BuildingBlock: NC(=O)C1=C=C([Fr])C=CN1[Fr], # of connection points: 2
#     Edge 109, Type (0, 0), BuildingBlock: NC(=O)C1=C=C([Fr])C=CN1[Fr], # of connection points: 2
#     Edge 110, Type (0, 0), BuildingBlock: NC(=O)C1=C=C([Fr])C=CN1[Fr], # of connection points: 2
#     Edge 111, Type (0, 0), BuildingBlock: NC(=O)C1=C=C([Fr])C=CN1[Fr], # of connection points: 2
#     Edge 112, Type (0, 0), BuildingBlock: NC(=O)C1=C=C([Fr])C=CN1[Fr], # of connection points: 2
#     Edge 113, Type (0, 0), BuildingBlock: NC(=O)C1=C=C([Fr])C=CN1[Fr], # of connection points: 2
#     Edge 114, Type (0, 0), BuildingBlock: NC(=O)C1=C=C([Fr])C=CN1[Fr], # of connection points: 2
#     Edge 115, Type (0, 0), BuildingBlock: NC(=O)C1=C=C([Fr])C=CN1[Fr], # of connection points: 2
#     Edge 116, Type (0, 0), BuildingBlock: NC(=O)C1=C=C([Fr])C=CN1[Fr], # of connection points: 2
#     Edge 117, Type (0, 0), BuildingBlock: NC(=O)C1=C=C([Fr])C=CN1[Fr], # of connection points: 2
#     Edge 118, Type (0, 0), BuildingBlock: NC(=O)C1=C=C([Fr])C=CN1[Fr], # of connection points: 2
#     Edge 119, Type (0, 0), BuildingBlock: NC(=O)C1=C=C([Fr])C=CN1[Fr], # of connection points: 2
#     Edge 120, Type (0, 0), BuildingBlock: NC(=O)C1=C=C([Fr])C=CN1[Fr], # of connection points: 2
#     Edge 121, Type (0, 0), BuildingBlock: NC(=O)C1=C=C([Fr])C=CN1[Fr], # of connection points: 2
#     Edge 122, Type (0, 0), BuildingBlock: NC(=O)C1=C=C([Fr])C=CN1[Fr], # of connection points: 2
#     Edge 123, Type (0, 0), BuildingBlock: NC(=O)C1=C=C([Fr])C=CN1[Fr], # of connection points: 2
#     Edge 124, Type (0, 0), BuildingBlock: NC(=O)C1=C=C([Fr])C=CN1[Fr], # of connection points: 2
#     Edge 125, Type (0, 0), BuildingBlock: NC(=O)C1=C=C([Fr])C=CN1[Fr], # of connection points: 2
#     Edge 126, Type (0, 0), BuildingBlock: NC(=O)C1=C=C([Fr])C=CN1[Fr], # of connection points: 2
#     Edge 127, Type (0, 0), BuildingBlock: NC(=O)C1=C=C([Fr])C=CN1[Fr], # of connection points: 2
#     Edge 128, Type (0, 0), BuildingBlock: NC(=O)C1=C=C([Fr])C=CN1[Fr], # of connection points: 2
#     Edge 129, Type (0, 0), BuildingBlock: NC(=O)C1=C=C([Fr])C=CN1[Fr], # of connection points: 2
#     Edge 130, Type (0, 0), BuildingBlock: NC(=O)C1=C=C([Fr])C=CN1[Fr], # of connection points: 2
#     Edge 131, Type (0, 0), BuildingBlock: NC(=O)C1=C=C([Fr])C=CN1[Fr], # of connection points: 2
#     Edge 132, Type (0, 0), BuildingBlock: NC(=O)C1=C=C([Fr])C=CN1[Fr], # of connection points: 2
#     Edge 133, Type (0, 0), BuildingBlock: NC(=O)C1=C=C([Fr])C=CN1[Fr], # of connection points: 2
#     Edge 134, Type (0, 0), BuildingBlock: NC(=O)C1=C=C([Fr])C=CN1[Fr], # of connection points: 2
#     Edge 135, Type (0, 0), BuildingBlock: NC(=O)C1=C=C([Fr])C=CN1[Fr], # of connection points: 2
#     Edge 136, Type (0, 0), BuildingBlock: NC(=O)C1=C=C([Fr])C=CN1[Fr], # of connection points: 2
#     Edge 137, Type (0, 0), BuildingBlock: NC(=O)C1=C=C([Fr])C=CN1[Fr], # of connection points: 2
#     Edge 138, Type (0, 0), BuildingBlock: NC(=O)C1=C=C([Fr])C=CN1[Fr], # of connection points: 2
#     Edge 139, Type (0, 0), BuildingBlock: NC(=O)C1=C=C([Fr])C=CN1[Fr], # of connection points: 2
#     Edge 140, Type (0, 0), BuildingBlock: NC(=O)C1=C=C([Fr])C=CN1[Fr], # of connection points: 2
#     Edge 141, Type (0, 0), BuildingBlock: NC(=O)C1=C=C([Fr])C=CN1[Fr], # of connection points: 2
#     Edge 142, Type (0, 0), BuildingBlock: NC(=O)C1=C=C([Fr])C=CN1[Fr], # of connection points: 2
#     Edge 143, Type (0, 0), BuildingBlock: NC(=O)C1=C=C([Fr])C=CN1[Fr], # of connection points: 2
# Relax obj value: 0.173
# Max RMSD: 0.209
# Mean RMSD: 0.182
data_NC(=O)C1=C=C([Fr])C=CN1[Fr]_ana_N398
_symmetry_space_group_name_H-M    P1
_symmetry_Int_Tables_number       1
_symmetry_cell_setting            triclinic
loop_
_symmetry_equiv_pos_as_xyz
'x, y, z'
_cell_length_a     48.077
_cell_length_b     48.750
_cell_length_c     48.441
_cell_angle_alpha  90.345
_cell_angle_beta   90.588
_cell_angle_gamma  91.854
loop_
_atom_site_label
_atom_site_type_symbol
_atom_site_fract_x
_atom_site_fract_y
_atom_site_fract_z
_atom_type_partial_charge
Co0 Co 0.63833 0.15861 0.13205 0.0
O1 O 0.57721 0.15014 0.09973 0.0
Co2 Co 0.60083 0.16393 0.06814 0.0
O3 O 0.60206 0.13802 0.13711 0.0
C4 C 0.61905 0.14113 0.02716 0.0
C5 C 0.68467 0.13900 0.13132 0.0
O6 O 0.68173 0.16409 0.12813 0.0
O7 O 0.66482 0.12359 0.13782 0.0
C8 C 0.58048 0.13744 0.12243 0.0
O9 O 0.62496 0.19671 0.12435 0.0
O10 O 0.60984 0.20243 0.08068 0.0
C11 C 0.61885 0.21126 0.10348 0.0
O12 O 0.60262 0.12876 0.04286 0.0
O13 O 0.62445 0.16603 0.02999 0.0
Co14 Co 0.58822 0.15268 0.67712 0.0
O15 O 0.55515 0.12867 0.62086 0.0
Co16 Co 0.59377 0.11535 0.61361 0.0
O17 O 0.54922 0.14382 0.66434 0.0
C18 C 0.61354 0.06961 0.61493 0.0
C19 C 0.61114 0.13486 0.71845 0.0
O20 O 0.62379 0.15095 0.70270 0.0
O21 O 0.58589 0.12958 0.71546 0.0
C22 C 0.54032 0.13484 0.64155 0.0
O23 O 0.60239 0.17578 0.64541 0.0
O24 O 0.61476 0.15104 0.60837 0.0
C25 C 0.61534 0.17240 0.62285 0.0
O26 O 0.58809 0.07259 0.61789 0.0
O27 O 0.62924 0.08911 0.60837 0.0
Co28 Co 0.65304 0.81634 0.41920 0.0
O29 O 0.62901 0.87114 0.45131 0.0
Co30 Co 0.61484 0.87788 0.41261 0.0
O31 O 0.64464 0.82857 0.45766 0.0
C32 C 0.56812 0.87467 0.39177 0.0
C33 C 0.63474 0.77458 0.39602 0.0
O34 O 0.65080 0.79094 0.38388 0.0
O35 O 0.62979 0.77726 0.42094 0.0
C36 C 0.63559 0.85081 0.46622 0.0
O37 O 0.67612 0.84885 0.40572 0.0
O38 O 0.65068 0.88464 0.39273 0.0
C39 C 0.67239 0.87116 0.39274 0.0
O40 O 0.57157 0.87180 0.41712 0.0
O41 O 0.58763 0.88205 0.37671 0.0
Co42 Co 0.90833 0.85160 0.17832 0.0
O43 O 0.94127 0.87554 0.12292 0.0
Co44 Co 0.90272 0.88923 0.11534 0.0
O45 O 0.94733 0.86017 0.16623 0.0
C46 C 0.88338 0.93514 0.11713 0.0
C47 C 0.88583 0.86945 0.21962 0.0
O48 O 0.87295 0.85353 0.20342 0.0
O49 O 0.91111 0.87453 0.21707 0.0
C50 C 0.95616 0.86916 0.14371 0.0
O51 O 0.89377 0.82874 0.14604 0.0
O52 O 0.88140 0.85373 0.10922 0.0
C53 C 0.88071 0.83232 0.12335 0.0
O54 O 0.90882 0.93194 0.12040 0.0
O55 O 0.86747 0.91579 0.11003 0.0
Co56 Co 0.85240 0.18323 0.91493 0.0
O57 O 0.87614 0.12837 0.94699 0.0
Co58 Co 0.88956 0.12107 0.90833 0.0
O59 O 0.86125 0.17124 0.95340 0.0
C60 C 0.93595 0.12341 0.88770 0.0
C61 C 0.87091 0.22454 0.89197 0.0
O62 O 0.85442 0.20828 0.87971 0.0
O63 O 0.87624 0.22201 0.91690 0.0
C64 C 0.87011 0.14895 0.96193 0.0
O65 O 0.82863 0.15091 0.90126 0.0
O66 O 0.85330 0.11463 0.88827 0.0
C67 C 0.83181 0.12842 0.88823 0.0
O68 O 0.93297 0.12658 0.91304 0.0
O69 O 0.91610 0.11617 0.87253 0.0
Co70 Co 0.84083 0.57423 0.90335 0.0
O71 O 0.80913 0.62910 0.87951 0.0
Co72 Co 0.84800 0.63688 0.86545 0.0
O73 O 0.80215 0.58600 0.89502 0.0
C74 C 0.86799 0.63523 0.81912 0.0
C75 C 0.86294 0.53332 0.88521 0.0
O76 O 0.87585 0.54949 0.90114 0.0
O77 O 0.83778 0.53569 0.88029 0.0
C78 C 0.79381 0.60833 0.88604 0.0
O79 O 0.85557 0.60641 0.92625 0.0
O80 O 0.86890 0.64308 0.90101 0.0
C81 C 0.86904 0.62904 0.92255 0.0
O82 O 0.84246 0.63182 0.82253 0.0
O83 O 0.88373 0.64238 0.83847 0.0
Co84 Co 0.33285 0.93251 0.09710 0.0
O85 O 0.30000 0.87654 0.12100 0.0
Co86 Co 0.33889 0.87028 0.13533 0.0
O87 O 0.29395 0.91932 0.10526 0.0
C88 C 0.35963 0.87291 0.18178 0.0
C89 C 0.35634 0.97436 0.11519 0.0
O90 O 0.36858 0.95859 0.09941 0.0
O91 O 0.33118 0.97106 0.11997 0.0
C92 C 0.28514 0.89671 0.11429 0.0
O93 O 0.34639 0.90077 0.07444 0.0
O94 O 0.35911 0.86469 0.09991 0.0
C95 C 0.35931 0.87864 0.07832 0.0
O96 O 0.33412 0.87534 0.17819 0.0
O97 O 0.37490 0.86626 0.16255 0.0
Co98 Co 0.06692 0.89909 0.66224 0.0
O99 O 0.12260 0.87612 0.69506 0.0
Co100 Co 0.12996 0.86238 0.65647 0.0
O101 O 0.07914 0.89087 0.70086 0.0
C102 C 0.12757 0.81636 0.63566 0.0
C103 C 0.02500 0.88051 0.63859 0.0
O104 O 0.04147 0.89662 0.62662 0.0
O105 O 0.02760 0.87558 0.66354 0.0
C106 C 0.10176 0.88225 0.70970 0.0
O107 O 0.09966 0.92236 0.64913 0.0
O108 O 0.13645 0.89787 0.63662 0.0
C109 C 0.12245 0.91906 0.63643 0.0
O110 O 0.12439 0.81962 0.66096 0.0
O111 O 0.13488 0.83574 0.62066 0.0
Co112 Co 0.36248 0.84211 0.86882 0.0
O113 O 0.42354 0.85056 0.90127 0.0
Co114 Co 0.39982 0.83685 0.93283 0.0
O115 O 0.39880 0.86264 0.86381 0.0
C116 C 0.38152 0.85975 0.97372 0.0
C117 C 0.31618 0.86178 0.86939 0.0
O118 O 0.31907 0.83668 0.87263 0.0
O119 O 0.33606 0.87715 0.86291 0.0
C120 C 0.42034 0.86322 0.87854 0.0
O121 O 0.37579 0.80400 0.87661 0.0
O122 O 0.39079 0.79834 0.92033 0.0
C123 C 0.38183 0.78948 0.89753 0.0
O124 O 0.39801 0.87207 0.95803 0.0
O125 O 0.37609 0.83485 0.97092 0.0
Co126 Co 0.40629 0.88496 0.38758 0.0
O127 O 0.39728 0.82444 0.35604 0.0
Co128 Co 0.41152 0.84733 0.32422 0.0
O129 O 0.38511 0.84940 0.39300 0.0
C130 C 0.38865 0.86511 0.28284 0.0
C131 C 0.38679 0.93081 0.38610 0.0
O132 O 0.41221 0.92767 0.38312 0.0
O133 O 0.37099 0.91141 0.39276 0.0
C134 C 0.38438 0.82798 0.37860 0.0
O135 O 0.44482 0.87138 0.38033 0.0
O136 O 0.45059 0.85602 0.33690 0.0
C137 C 0.45957 0.86504 0.35964 0.0
O138 O 0.37594 0.84915 0.29868 0.0
O139 O 0.41393 0.87026 0.28577 0.0
Co140 Co 0.36694 0.14075 0.15328 0.0
O141 O 0.39772 0.08096 0.14629 0.0
Co142 Co 0.43041 0.10471 0.15967 0.0
O143 O 0.36055 0.10493 0.13342 0.0
C144 C 0.47188 0.12335 0.13637 0.0
C145 C 0.36864 0.18649 0.13244 0.0
O146 O 0.37215 0.18359 0.15777 0.0
O147 O 0.36133 0.16684 0.11739 0.0
C148 C 0.37475 0.08387 0.13339 0.0
O149 O 0.37488 0.12760 0.19196 0.0
O150 O 0.41857 0.11334 0.19817 0.0
C151 C 0.39596 0.12186 0.20680 0.0
O152 O 0.45543 0.10693 0.12428 0.0
O153 O 0.46953 0.12859 0.16129 0.0
Co154 Co 0.14801 0.81945 0.08451 0.0
O155 O 0.12421 0.87436 0.05257 0.0
Co156 Co 0.11070 0.88152 0.09123 0.0
O157 O 0.13920 0.83154 0.04606 0.0
C158 C 0.06428 0.87902 0.11177 0.0
C159 C 0.12953 0.77805 0.10732 0.0
O160 O 0.14597 0.79430 0.11966 0.0
O161 O 0.12425 0.78063 0.08239 0.0
C162 C 0.13031 0.85384 0.03758 0.0
O163 O 0.17169 0.85178 0.09832 0.0
O164 O 0.14691 0.88798 0.11137 0.0
C165 C 0.16844 0.87422 0.11141 0.0
O166 O 0.06731 0.87594 0.08643 0.0
O167 O 0.08409 0.88626 0.12700 0.0
Co168 Co 0.14314 0.15511 0.37018 0.0
O169 O 0.08203 0.14679 0.40121 0.0
Co170 Co 0.10573 0.16051 0.43344 0.0
O171 O 0.10681 0.13461 0.36416 0.0
C172 C 0.12394 0.13765 0.47448 0.0
C173 C 0.18942 0.13538 0.37155 0.0
O174 O 0.18655 0.16048 0.37500 0.0
O175 O 0.16952 0.12002 0.36448 0.0
C176 C 0.08525 0.13409 0.37842 0.0
O177 O 0.12988 0.19324 0.37809 0.0
O178 O 0.11483 0.19899 0.42154 0.0
C179 C 0.12383 0.20781 0.39902 0.0
O180 O 0.10746 0.12532 0.45830 0.0
O181 O 0.12941 0.16254 0.47206 0.0
Co182 Co 0.38555 0.12228 0.58828 0.0
O183 O 0.32418 0.15114 0.59502 0.0
Co184 Co 0.34722 0.18372 0.58165 0.0
O185 O 0.34966 0.11540 0.60804 0.0
C186 C 0.36534 0.22550 0.60492 0.0
C187 C 0.43220 0.12557 0.60926 0.0
O188 O 0.42882 0.12846 0.58391 0.0
O189 O 0.41267 0.11812 0.62426 0.0
C190 C 0.32792 0.12883 0.60798 0.0
O191 O 0.37148 0.12903 0.54954 0.0
O192 O 0.35576 0.17157 0.54320 0.0
C193 C 0.36489 0.14936 0.53464 0.0
O194 O 0.34929 0.20908 0.61700 0.0
O195 O 0.37038 0.22286 0.58002 0.0
Co196 Co 0.63400 0.85992 0.84783 0.0
O197 O 0.60318 0.91971 0.85469 0.0
Co198 Co 0.57052 0.89592 0.84130 0.0
O199 O 0.64035 0.89577 0.86764 0.0
C200 C 0.52902 0.87731 0.86458 0.0
C201 C 0.63228 0.81421 0.86875 0.0
O202 O 0.62881 0.81707 0.84340 0.0
O203 O 0.63957 0.83389 0.88377 0.0
C204 C 0.62614 0.91682 0.86762 0.0
O205 O 0.62610 0.87301 0.80912 0.0
O206 O 0.58241 0.88724 0.80283 0.0
C207 C 0.60503 0.87871 0.79424 0.0
O208 O 0.54546 0.89375 0.87667 0.0
O209 O 0.53141 0.87203 0.83967 0.0
Co210 Co 0.90719 0.38848 0.88421 0.0
O211 O 0.89822 0.32806 0.85246 0.0
Co212 Co 0.91249 0.35106 0.82073 0.0
O213 O 0.88602 0.35290 0.88949 0.0
C214 C 0.88965 0.36897 0.77939 0.0
C215 C 0.88769 0.43433 0.88286 0.0
O216 O 0.91312 0.43121 0.87989 0.0
O217 O 0.87189 0.41492 0.88945 0.0
C218 C 0.88530 0.33153 0.87503 0.0
O219 O 0.94574 0.37493 0.87694 0.0
O220 O 0.95155 0.35971 0.83347 0.0
C221 C 0.96051 0.36866 0.85625 0.0
O222 O 0.87692 0.35296 0.79517 0.0
O223 O 0.91492 0.37411 0.78236 0.0
Co224 Co 0.88612 0.62235 0.08886 0.0
O225 O 0.82486 0.65136 0.09589 0.0
Co226 Co 0.84791 0.68388 0.08240 0.0
O227 O 0.85032 0.61556 0.10880 0.0
C228 C 0.86624 0.72563 0.10557 0.0
C229 C 0.93288 0.62554 0.10961 0.0
O230 O 0.92938 0.62843 0.08428 0.0
O231 O 0.91340 0.61814 0.12471 0.0
C232 C 0.82861 0.62904 0.10884 0.0
O233 O 0.87187 0.62911 0.05019 0.0
O234 O 0.85623 0.67169 0.04391 0.0
C235 C 0.86527 0.64945 0.03531 0.0
O236 O 0.85021 0.70925 0.11773 0.0
O237 O 0.87115 0.72297 0.08064 0.0
Co238 Co 0.59261 0.64873 0.32275 0.0
O239 O 0.55972 0.62470 0.37814 0.0
Co240 Co 0.59828 0.61102 0.38568 0.0
O241 O 0.55363 0.64012 0.33485 0.0
C242 C 0.61766 0.56513 0.38382 0.0
C243 C 0.61510 0.63094 0.28141 0.0
O244 O 0.62798 0.64686 0.29763 0.0
O245 O 0.58983 0.62585 0.28397 0.0
C246 C 0.54481 0.63109 0.35736 0.0
O247 O 0.60718 0.67156 0.35506 0.0
O248 O 0.61959 0.64653 0.39183 0.0
C249 C 0.62025 0.66796 0.37773 0.0
O250 O 0.59222 0.56832 0.38057 0.0
O251 O 0.63356 0.58448 0.39093 0.0
Co252 Co 0.86717 0.63781 0.65616 0.0
O253 O 0.89800 0.57802 0.64945 0.0
Co254 Co 0.93065 0.60183 0.66280 0.0
O255 O 0.86083 0.60192 0.63642 0.0
C256 C 0.97215 0.62040 0.63950 0.0
C257 C 0.86889 0.68348 0.63516 0.0
O258 O 0.87235 0.68068 0.66051 0.0
O259 O 0.86161 0.66377 0.62017 0.0
C260 C 0.87504 0.58087 0.63649 0.0
O261 O 0.87505 0.62481 0.69491 0.0
O262 O 0.91874 0.61059 0.70125 0.0
C263 C 0.89611 0.61913 0.70980 0.0
O264 O 0.95573 0.60393 0.62744 0.0
O265 O 0.96976 0.62573 0.66440 0.0
Co266 Co 0.64230 0.65613 0.87140 0.0
O267 O 0.58132 0.64759 0.90264 0.0
Co268 Co 0.60509 0.66136 0.93480 0.0
O269 O 0.60601 0.63553 0.86549 0.0
C270 C 0.62353 0.63853 0.97576 0.0
C271 C 0.68865 0.63656 0.87259 0.0
O272 O 0.68571 0.66165 0.87607 0.0
O273 O 0.66878 0.62114 0.86558 0.0
C274 C 0.58450 0.63492 0.87983 0.0
O275 O 0.62893 0.69422 0.87939 0.0
O276 O 0.61401 0.69988 0.92290 0.0
C277 C 0.62290 0.70874 0.90036 0.0
O278 O 0.60703 0.62616 0.95963 0.0
O279 O 0.62890 0.66344 0.97334 0.0
Co280 Co 0.56715 0.39977 0.16294 0.0
O281 O 0.62278 0.37653 0.19564 0.0
Co282 Co 0.63011 0.36296 0.15698 0.0
O283 O 0.57935 0.39133 0.20151 0.0
C284 C 0.62763 0.31704 0.13594 0.0
C285 C 0.52521 0.38139 0.13919 0.0
O286 O 0.54170 0.39753 0.12731 0.0
O287 O 0.52779 0.37633 0.16412 0.0
C288 C 0.60195 0.38263 0.21031 0.0
O289 O 0.59994 0.42305 0.14994 0.0
O290 O 0.63668 0.39855 0.13732 0.0
C291 C 0.62272 0.41977 0.13723 0.0
O292 O 0.62446 0.32019 0.16126 0.0
O293 O 0.63499 0.33649 0.12104 0.0
Co294 Co 0.86628 0.34305 0.36545 0.0
O295 O 0.92743 0.35151 0.39772 0.0
Co296 Co 0.90380 0.33782 0.42936 0.0
O297 O 0.90258 0.36357 0.36032 0.0
C298 C 0.88563 0.36074 0.47029 0.0
C299 C 0.81998 0.36272 0.36614 0.0
O300 O 0.82288 0.33763 0.36939 0.0
O301 O 0.83985 0.37809 0.35960 0.0
C302 C 0.92416 0.36415 0.37500 0.0
O303 O 0.87961 0.30495 0.37322 0.0
O304 O 0.89473 0.29930 0.41690 0.0
C305 C 0.88570 0.29043 0.39412 0.0
O306 O 0.90207 0.37305 0.45455 0.0
O307 O 0.88019 0.33584 0.46751 0.0
Co308 Co 0.64502 0.31974 0.58756 0.0
O309 O 0.62134 0.37459 0.55545 0.0
Co310 Co 0.60768 0.38181 0.59405 0.0
O311 O 0.63635 0.33177 0.54907 0.0
C312 C 0.56117 0.37933 0.61442 0.0
C313 C 0.62646 0.27836 0.61036 0.0
O314 O 0.64285 0.29463 0.62274 0.0
O315 O 0.62127 0.28091 0.58541 0.0
C316 C 0.62749 0.35406 0.54052 0.0
O317 O 0.66864 0.35208 0.60141 0.0
O318 O 0.64381 0.38830 0.61431 0.0
C319 C 0.66534 0.37454 0.61445 0.0
O320 O 0.56430 0.37621 0.58909 0.0
O321 O 0.58093 0.38659 0.62971 0.0
Co322 Co 0.65212 0.86408 0.63635 0.0
O323 O 0.64461 0.89435 0.57544 0.0
Co324 Co 0.65945 0.92657 0.59821 0.0
O325 O 0.63119 0.85780 0.60082 0.0
C326 C 0.63746 0.96762 0.61620 0.0
C327 C 0.63214 0.86597 0.68269 0.0
O328 O 0.65769 0.86929 0.67926 0.0
O329 O 0.61638 0.85879 0.66337 0.0
C330 C 0.63108 0.87176 0.57923 0.0
O331 O 0.69100 0.87170 0.62226 0.0
O332 O 0.69809 0.91472 0.60658 0.0
C333 C 0.70638 0.89240 0.61565 0.0
O334 O 0.62451 0.95141 0.60033 0.0
O335 O 0.66261 0.96519 0.62112 0.0
Co336 Co 0.16866 0.56749 0.40364 0.0
O337 O 0.20122 0.62373 0.37998 0.0
Co338 Co 0.16230 0.62982 0.36564 0.0
O339 O 0.20750 0.58093 0.39557 0.0
C340 C 0.14162 0.62725 0.31917 0.0
C341 C 0.14542 0.52558 0.38538 0.0
O342 O 0.13307 0.54123 0.40120 0.0
O343 O 0.17057 0.52904 0.38063 0.0
C344 C 0.21619 0.60362 0.38663 0.0
O345 O 0.15492 0.59907 0.42641 0.0
O346 O 0.14201 0.63516 0.40105 0.0
C347 C 0.14187 0.62113 0.42260 0.0
O348 O 0.16714 0.62494 0.32276 0.0
O349 O 0.12629 0.63374 0.33840 0.0
Co350 Co 0.33782 0.37117 0.86535 0.0
O351 O 0.34631 0.40213 0.92642 0.0
Co352 Co 0.33255 0.43374 0.90381 0.0
O353 O 0.35854 0.36581 0.90086 0.0
C354 C 0.35591 0.47538 0.88604 0.0
C355 C 0.35789 0.37336 0.81903 0.0
O356 O 0.33244 0.37590 0.82247 0.0
O357 O 0.37341 0.36681 0.83833 0.0
C358 C 0.35911 0.37994 0.92252 0.0
O359 O 0.29917 0.37766 0.87946 0.0
O360 O 0.29349 0.42060 0.89535 0.0
C361 C 0.28447 0.39794 0.88617 0.0
O362 O 0.36833 0.45969 0.90183 0.0
O363 O 0.33067 0.47211 0.88109 0.0
Co364 Co 0.32453 0.58936 0.65490 0.0
O365 O 0.38001 0.55780 0.63148 0.0
Co366 Co 0.38852 0.59628 0.61799 0.0
O367 O 0.33608 0.55119 0.64629 0.0
C368 C 0.38758 0.61676 0.57188 0.0
C369 C 0.28352 0.61196 0.63645 0.0
O370 O 0.29991 0.62424 0.65275 0.0
O371 O 0.28568 0.58719 0.63127 0.0
C372 C 0.35870 0.54284 0.63753 0.0
O373 O 0.35707 0.60315 0.67841 0.0
O374 O 0.39468 0.61625 0.65386 0.0
C375 C 0.38022 0.61622 0.67519 0.0
O376 O 0.38378 0.59156 0.57494 0.0
O377 O 0.39481 0.63189 0.59150 0.0
Co378 Co 0.82515 0.08982 0.15355 0.0
O379 O 0.88062 0.05840 0.12989 0.0
Co380 Co 0.88901 0.09691 0.11644 0.0
O381 O 0.83675 0.05169 0.14483 0.0
C382 C 0.88789 0.11747 0.07037 0.0
C383 C 0.78404 0.11237 0.13526 0.0
O384 O 0.80045 0.12466 0.15153 0.0
O385 O 0.78623 0.08761 0.13004 0.0
C386 C 0.85936 0.04339 0.13599 0.0
O387 O 0.85774 0.10363 0.17698 0.0
O388 O 0.89525 0.11685 0.15233 0.0
C389 C 0.88086 0.11675 0.17371 0.0
O390 O 0.88414 0.09225 0.07340 0.0
O391 O 0.89515 0.13258 0.08999 0.0
Co392 Co 0.66775 0.06857 0.90368 0.0
O393 O 0.70022 0.12467 0.87961 0.0
Co394 Co 0.66125 0.13071 0.86542 0.0
O395 O 0.70655 0.08194 0.89537 0.0
C396 C 0.64035 0.12793 0.81904 0.0
C397 C 0.64440 0.02658 0.88571 0.0
O398 O 0.63214 0.04231 0.90152 0.0
O399 O 0.66954 0.03000 0.88084 0.0
C400 C 0.71522 0.10458 0.88629 0.0
O401 O 0.65413 0.10026 0.92636 0.0
O402 O 0.64113 0.13624 0.90089 0.0
C403 C 0.64108 0.12231 0.92250 0.0
O404 O 0.66589 0.12563 0.82253 0.0
O405 O 0.62512 0.13453 0.83831 0.0
Co406 Co 0.83297 0.93336 0.40381 0.0
O407 O 0.79959 0.87729 0.37947 0.0
Co408 Co 0.83824 0.87079 0.36536 0.0
O409 O 0.79391 0.92023 0.39535 0.0
C410 C 0.85831 0.87297 0.31905 0.0
C411 C 0.85634 0.97499 0.38604 0.0
O412 O 0.86876 0.95931 0.40183 0.0
O413 O 0.83110 0.97174 0.38109 0.0
C414 C 0.78489 0.89757 0.38617 0.0
O415 O 0.84673 0.90176 0.42642 0.0
O416 O 0.85895 0.86543 0.40088 0.0
C417 C 0.85952 0.87956 0.42253 0.0
O418 O 0.83286 0.87551 0.32248 0.0
O419 O 0.87383 0.86642 0.33834 0.0
Co420 Co 0.37048 0.63762 0.84449 0.0
O421 O 0.40064 0.57754 0.85167 0.0
Co422 Co 0.43345 0.60080 0.83866 0.0
O423 O 0.36389 0.60207 0.86421 0.0
C424 C 0.47537 0.61921 0.86242 0.0
C425 C 0.37295 0.68358 0.86544 0.0
O426 O 0.37614 0.68038 0.84013 0.0
O427 O 0.36558 0.66416 0.88037 0.0
C428 C 0.37785 0.58085 0.86435 0.0
O429 O 0.37785 0.62398 0.80586 0.0
O430 O 0.42129 0.60916 0.80006 0.0
C431 C 0.39870 0.61785 0.79122 0.0
O432 O 0.45886 0.60310 0.87431 0.0
O433 O 0.47281 0.62422 0.83748 0.0
Co434 Co 0.13810 0.65757 0.63247 0.0
O435 O 0.07695 0.64875 0.60026 0.0
Co436 Co 0.10047 0.66254 0.56859 0.0
O437 O 0.10191 0.63685 0.63764 0.0
C438 C 0.11874 0.63969 0.52766 0.0
C439 C 0.18452 0.63815 0.63174 0.0
O440 O 0.18147 0.66322 0.62847 0.0
O441 O 0.16474 0.62268 0.63831 0.0
C442 C 0.08032 0.63614 0.62299 0.0
O443 O 0.12454 0.69558 0.62467 0.0
O444 O 0.10934 0.70111 0.58100 0.0
C445 C 0.11834 0.71005 0.60377 0.0
O446 O 0.10238 0.62730 0.54342 0.0
O447 O 0.12404 0.66462 0.53041 0.0
Co448 Co 0.13625 0.35919 0.34632 0.0
O449 O 0.10556 0.41902 0.35332 0.0
Co450 Co 0.07286 0.39535 0.33980 0.0
O451 O 0.14265 0.39496 0.36626 0.0
C452 C 0.03129 0.37675 0.36294 0.0
C453 C 0.13439 0.31341 0.36707 0.0
O454 O 0.13097 0.31636 0.34173 0.0
O455 O 0.14169 0.33302 0.38217 0.0
C456 C 0.12848 0.41604 0.36628 0.0
O457 O 0.12845 0.37242 0.30764 0.0
O458 O 0.08481 0.38677 0.30132 0.0
C459 C 0.10743 0.37822 0.29274 0.0
O460 O 0.04774 0.39312 0.37511 0.0
O461 O 0.03371 0.37155 0.33802 0.0
Co462 Co 0.39034 0.61907 0.40992 0.0
O463 O 0.32935 0.64878 0.40270 0.0
Co464 Co 0.35301 0.68113 0.41652 0.0
O465 O 0.35416 0.61258 0.38973 0.0
C466 C 0.37150 0.72252 0.39369 0.0
C467 C 0.43680 0.62155 0.38946 0.0
O468 O 0.43372 0.62466 0.41479 0.0
O469 O 0.41701 0.61429 0.37420 0.0
C470 C 0.33263 0.62633 0.38964 0.0
O471 O 0.37676 0.62626 0.44855 0.0
O472 O 0.36175 0.66909 0.45499 0.0
C473 C 0.37063 0.64679 0.46351 0.0
O474 O 0.35509 0.70624 0.38134 0.0
O475 O 0.37675 0.71996 0.41863 0.0
Co476 Co 0.66270 0.62949 0.13589 0.0
O477 O 0.65431 0.59849 0.07484 0.0
Co478 Co 0.66812 0.56692 0.09747 0.0
O479 O 0.64199 0.63480 0.10036 0.0
C480 C 0.64483 0.52525 0.11525 0.0
C481 C 0.64262 0.62730 0.18220 0.0
O482 O 0.66807 0.62480 0.17878 0.0
O483 O 0.62709 0.63380 0.16289 0.0
C484 C 0.64147 0.62066 0.07871 0.0
O485 O 0.70138 0.62307 0.12180 0.0
O486 O 0.70715 0.58014 0.10594 0.0
C487 C 0.71612 0.60282 0.11512 0.0
O488 O 0.63239 0.54091 0.09945 0.0
O489 O 0.67007 0.52857 0.12021 0.0
Co490 Co 0.16203 0.12892 0.63465 0.0
O491 O 0.15389 0.09769 0.57367 0.0
Co492 Co 0.16767 0.06623 0.59647 0.0
O493 O 0.14144 0.13407 0.59903 0.0
C494 C 0.14437 0.02459 0.61431 0.0
C495 C 0.14179 0.12685 0.68089 0.0
O496 O 0.16726 0.12438 0.67757 0.0
O497 O 0.12632 0.13327 0.66151 0.0
C498 C 0.14100 0.11986 0.57742 0.0
O499 O 0.20077 0.12250 0.62072 0.0
O500 O 0.20666 0.07952 0.60503 0.0
C501 C 0.21557 0.10225 0.61415 0.0
O502 O 0.13196 0.04017 0.59841 0.0
O503 O 0.16959 0.02795 0.61935 0.0
Co504 Co 0.11178 0.90434 0.88315 0.0
O505 O 0.14322 0.89744 0.82273 0.0
Co506 Co 0.17574 0.91136 0.84620 0.0
O507 O 0.10566 0.88428 0.84732 0.0
C508 C 0.21682 0.88892 0.86468 0.0
C509 C 0.11280 0.88396 0.92930 0.0
O510 O 0.11653 0.90916 0.92618 0.0
O511 O 0.10560 0.86877 0.90971 0.0
C512 C 0.12011 0.88431 0.82598 0.0
O513 O 0.12017 0.94281 0.86958 0.0
O514 O 0.16408 0.94951 0.85474 0.0
C515 C 0.14143 0.95782 0.86349 0.0
O516 O 0.20046 0.87656 0.84841 0.0
O517 O 0.21460 0.91369 0.86981 0.0
Co518 Co 0.61289 0.40353 0.38382 0.0
O519 O 0.64412 0.39672 0.32328 0.0
Co520 Co 0.67672 0.41060 0.34666 0.0
O521 O 0.60665 0.38353 0.34797 0.0
C522 C 0.71787 0.38813 0.36497 0.0
C523 C 0.61407 0.38307 0.42994 0.0
O524 O 0.61778 0.40828 0.42685 0.0
O525 O 0.60680 0.36791 0.41034 0.0
C526 C 0.62102 0.38359 0.32659 0.0
O527 O 0.62124 0.44202 0.37029 0.0
O528 O 0.66510 0.44874 0.35531 0.0
C529 C 0.64248 0.45704 0.36415 0.0
O530 O 0.70145 0.37580 0.34873 0.0
O531 O 0.71566 0.41289 0.37015 0.0
Co532 Co 0.35834 0.34449 0.12961 0.0
O533 O 0.41935 0.35300 0.09843 0.0
Co534 Co 0.39562 0.33922 0.06626 0.0
O535 O 0.39463 0.36508 0.13555 0.0
C536 C 0.37724 0.36205 0.02527 0.0
C537 C 0.31200 0.36409 0.12836 0.0
O538 O 0.31493 0.33900 0.12489 0.0
O539 O 0.33187 0.37950 0.13539 0.0
C540 C 0.41615 0.36567 0.12124 0.0
O541 O 0.37169 0.30640 0.12165 0.0
O542 O 0.38666 0.30071 0.07816 0.0
C543 C 0.37773 0.29186 0.10069 0.0
O544 O 0.39373 0.37441 0.04142 0.0
O545 O 0.37185 0.33715 0.02769 0.0
Co546 Co 0.08962 0.65297 0.17680 0.0
O547 O 0.05626 0.62901 0.12068 0.0
Co548 Co 0.09480 0.61551 0.11332 0.0
O549 O 0.05054 0.64425 0.16415 0.0
C550 C 0.11438 0.56969 0.11466 0.0
C551 C 0.11259 0.63512 0.21809 0.0
O552 O 0.12525 0.65114 0.20227 0.0
O553 O 0.08731 0.62994 0.21519 0.0
C554 C 0.04153 0.63528 0.14141 0.0
O555 O 0.10377 0.67596 0.14501 0.0
O556 O 0.11592 0.65112 0.10797 0.0
C557 C 0.11664 0.67249 0.12242 0.0
O558 O 0.08895 0.57278 0.11769 0.0
O559 O 0.13013 0.58912 0.10802 0.0
Co560 Co 0.15268 0.31704 0.91793 0.0
O561 O 0.12891 0.37198 0.94999 0.0
Co562 Co 0.11496 0.37885 0.91123 0.0
O563 O 0.14420 0.32929 0.95637 0.0
C564 C 0.06833 0.37599 0.89018 0.0
C565 C 0.13420 0.27541 0.89464 0.0
O566 O 0.15043 0.29168 0.88259 0.0
O567 O 0.12915 0.27811 0.91954 0.0
C568 C 0.13527 0.35159 0.96490 0.0
O569 O 0.17605 0.34941 0.90458 0.0
O570 O 0.15094 0.38539 0.89152 0.0
C571 C 0.17254 0.37175 0.89161 0.0
O572 O 0.07164 0.37307 0.91554 0.0
O573 O 0.08795 0.38325 0.87521 0.0
Co574 Co 0.40102 0.38906 0.61579 0.0
O575 O 0.39192 0.32852 0.64635 0.0
Co576 Co 0.40640 0.35130 0.67872 0.0
O577 O 0.37969 0.35359 0.60954 0.0
C578 C 0.38378 0.36910 0.71998 0.0
C579 C 0.38171 0.43499 0.61761 0.0
O580 O 0.40713 0.43176 0.62095 0.0
O581 O 0.36581 0.41567 0.61042 0.0
C582 C 0.37894 0.33215 0.62363 0.0
O583 O 0.43953 0.37533 0.62346 0.0
O584 O 0.44544 0.35987 0.66677 0.0
C585 C 0.45435 0.36890 0.64430 0.0
O586 O 0.37093 0.35322 0.70371 0.0
O587 O 0.40906 0.37416 0.71752 0.0
Co588 Co 0.88091 0.41174 0.61633 0.0
O589 O 0.84949 0.40469 0.67689 0.0
Co590 Co 0.81742 0.41766 0.65363 0.0
O591 O 0.88638 0.39214 0.65208 0.0
C592 C 0.77527 0.39410 0.63528 0.0
C593 C 0.87878 0.39088 0.57012 0.0
O594 O 0.87614 0.41604 0.57333 0.0
O595 O 0.88544 0.37603 0.58963 0.0
C596 C 0.87203 0.39205 0.67348 0.0
O597 O 0.87422 0.45016 0.63006 0.0
O598 O 0.83065 0.45601 0.64514 0.0
C599 C 0.85362 0.46476 0.63630 0.0
O600 O 0.79120 0.38226 0.65144 0.0
O601 O 0.77852 0.41889 0.63022 0.0
Co602 Co 0.09721 0.11178 0.88444 0.0
O603 O 0.10634 0.17219 0.85362 0.0
Co604 Co 0.09174 0.14930 0.82138 0.0
O605 O 0.11863 0.14724 0.89050 0.0
C606 C 0.11422 0.13130 0.78013 0.0
C607 C 0.11643 0.06581 0.88275 0.0
O608 O 0.09101 0.06908 0.87946 0.0
O609 O 0.13239 0.08513 0.88982 0.0
C610 C 0.11938 0.16862 0.87633 0.0
O611 O 0.05871 0.12556 0.87681 0.0
O612 O 0.05272 0.14086 0.83345 0.0
C613 C 0.04385 0.13193 0.85598 0.0
O614 O 0.12713 0.14723 0.79630 0.0
O615 O 0.08893 0.12630 0.78267 0.0
Co616 Co 0.15996 0.42712 0.09693 0.0
O617 O 0.19168 0.37225 0.12074 0.0
Co618 Co 0.15284 0.36451 0.13490 0.0
O619 O 0.19865 0.41533 0.10519 0.0
C620 C 0.13296 0.36622 0.18128 0.0
C621 C 0.13792 0.46807 0.11509 0.0
O622 O 0.12496 0.45189 0.09921 0.0
O623 O 0.16309 0.46568 0.11995 0.0
C624 C 0.20699 0.39300 0.11416 0.0
O625 O 0.14514 0.39494 0.07410 0.0
O626 O 0.13185 0.35829 0.09939 0.0
C627 C 0.13166 0.37231 0.07785 0.0
O628 O 0.15849 0.36961 0.17780 0.0
O629 O 0.11717 0.35906 0.16198 0.0
Co630 Co 0.34893 0.13592 0.36475 0.0
O631 O 0.35641 0.10565 0.42566 0.0
Co632 Co 0.34171 0.07340 0.40285 0.0
O633 O 0.36977 0.14224 0.40032 0.0
C634 C 0.36385 0.03242 0.38489 0.0
C635 C 0.36899 0.13411 0.31845 0.0
O636 O 0.34345 0.13071 0.32183 0.0
O637 O 0.38470 0.14132 0.33780 0.0
C638 C 0.36989 0.12828 0.42190 0.0
O639 O 0.31004 0.12818 0.37877 0.0
O640 O 0.30304 0.08514 0.39442 0.0
C641 C 0.29471 0.10744 0.38535 0.0
O642 O 0.37673 0.04866 0.40078 0.0
O643 O 0.33870 0.03478 0.37992 0.0
Co644 Co 0.85807 0.84285 0.63009 0.0
O645 O 0.91903 0.85120 0.59879 0.0
Co646 Co 0.89524 0.83734 0.56670 0.0
O647 O 0.89438 0.86343 0.63590 0.0
C648 C 0.87681 0.86004 0.52566 0.0
C649 C 0.81174 0.86248 0.62884 0.0
O650 O 0.81465 0.83738 0.62545 0.0
O651 O 0.83164 0.87790 0.63579 0.0
C652 C 0.91588 0.86396 0.62156 0.0
O653 O 0.87138 0.80472 0.62223 0.0
O654 O 0.88627 0.79888 0.57873 0.0
C655 C 0.87738 0.79011 0.60131 0.0
O656 O 0.89333 0.87245 0.54173 0.0
O657 O 0.87141 0.83515 0.52817 0.0
Co658 Co 0.93424 0.10046 0.33737 0.0
O659 O 0.87880 0.12390 0.30449 0.0
Co660 Co 0.87157 0.13778 0.34306 0.0
O661 O 0.92211 0.10874 0.29873 0.0
C662 C 0.87439 0.18382 0.36380 0.0
C663 C 0.97631 0.11869 0.36101 0.0
O664 O 0.95969 0.10275 0.37299 0.0
O665 O 0.97376 0.12361 0.33605 0.0
C666 C 0.89958 0.11755 0.28987 0.0
O667 O 0.90128 0.07751 0.35050 0.0
O668 O 0.86473 0.10236 0.36296 0.0
C669 C 0.87853 0.08103 0.36318 0.0
O670 O 0.87754 0.18048 0.33851 0.0
O671 O 0.86689 0.16452 0.37883 0.0
N672 N 0.69209 0.17693 0.98299 0.0
C673 C 0.67072 0.16485 0.99990 0.0
O674 O 0.67027 0.17114 0.02486 0.0
C675 C 0.65011 0.14601 0.98760 0.0
C676 C 0.65096 0.13989 0.96142 0.0
C677 C 0.63294 0.12307 0.94942 0.0
C678 C 0.61067 0.11024 0.96543 0.0
C679 C 0.60903 0.11595 0.99239 0.0
N680 N 0.62900 0.13428 0.00450 0.0
H681 H 0.68677 0.18962 0.96667 0.0
H682 H 0.71289 0.17318 0.98721 0.0
H683 H 0.58918 0.09068 0.95308 0.0
H684 H 0.58615 0.10282 0.00906 0.0
N685 N 0.58337 0.18622 0.78748 0.0
C686 C 0.59999 0.16596 0.79975 0.0
O687 O 0.60400 0.16711 0.82572 0.0
C688 C 0.61203 0.14471 0.78340 0.0
C689 C 0.60760 0.14392 0.75684 0.0
C690 C 0.61778 0.12522 0.74083 0.0
C691 C 0.63492 0.10406 0.75255 0.0
C692 C 0.63999 0.10411 0.77975 0.0
N693 N 0.62853 0.12475 0.79627 0.0
H694 H 0.56484 0.18024 0.77750 0.0
H695 H 0.58959 0.20685 0.78842 0.0
H696 H 0.64735 0.08189 0.73547 0.0
H697 H 0.65763 0.08237 0.79201 0.0
N698 N 0.56284 0.90538 0.51981 0.0
C699 C 0.58255 0.89543 0.53902 0.0
O700 O 0.57903 0.90057 0.56448 0.0
C701 C 0.60589 0.88000 0.53006 0.0
C702 C 0.60905 0.87495 0.50387 0.0
C703 C 0.62963 0.86105 0.49436 0.0
C704 C 0.65030 0.85046 0.51332 0.0
C705 C 0.64784 0.85517 0.54040 0.0
N706 N 0.62522 0.87032 0.54975 0.0
H707 H 0.55103 0.89145 0.50781 0.0
H708 H 0.56018 0.92637 0.51771 0.0
H709 H 0.67454 0.83431 0.50394 0.0
H710 H 0.66905 0.84433 0.56010 0.0
N711 N 0.80588 0.90856 0.26809 0.0
C712 C 0.82529 0.89751 0.28693 0.0
O713 O 0.81913 0.89721 0.31239 0.0
C714 C 0.85123 0.88694 0.27764 0.0
C715 C 0.85709 0.88742 0.25145 0.0
C716 C 0.88013 0.87813 0.24162 0.0
C717 C 0.90061 0.86662 0.26021 0.0
C718 C 0.89543 0.86573 0.28727 0.0
N719 N 0.87020 0.87602 0.29697 0.0
H720 H 0.79694 0.89595 0.25275 0.0
H721 H 0.80059 0.92904 0.26954 0.0
H722 H 0.92757 0.85554 0.25045 0.0
H723 H 0.91641 0.85389 0.30658 0.0
N724 N 0.80821 0.10644 0.01037 0.0
C725 C 0.82976 0.11861 0.99427 0.0
O726 O 0.82499 0.12224 0.96872 0.0
C727 C 0.85629 0.12664 0.00639 0.0
C728 C 0.86070 0.12277 0.03263 0.0
C729 C 0.88416 0.12961 0.04494 0.0
C730 C 0.90681 0.14217 0.02923 0.0
C731 C 0.90316 0.14652 0.00221 0.0
N732 N 0.87740 0.13877 0.98977 0.0
H733 H 0.79993 0.11757 0.02657 0.0
H734 H 0.80073 0.08659 0.00605 0.0
H735 H 0.93439 0.15059 0.04194 0.0
H736 H 0.92638 0.15944 0.98586 0.0
N737 N 0.71621 0.55522 0.90716 0.0
C738 C 0.70541 0.57966 0.89616 0.0
O739 O 0.67913 0.58165 0.89494 0.0
C740 C 0.72355 0.60161 0.88661 0.0
C741 C 0.75041 0.59914 0.88810 0.0
C742 C 0.76802 0.61822 0.87991 0.0
C743 C 0.75785 0.64361 0.86851 0.0
C744 C 0.73040 0.64701 0.86661 0.0
N745 N 0.71213 0.62579 0.87574 0.0
H746 H 0.72845 0.55629 0.92502 0.0
H747 H 0.71197 0.53640 0.89751 0.0
H748 H 0.77681 0.66648 0.85867 0.0
H749 H 0.71973 0.67311 0.85490 0.0
N750 N 0.21066 0.92423 0.05919 0.0
C751 C 0.19746 0.90663 0.07866 0.0
O752 O 0.17118 0.90311 0.07700 0.0
C753 C 0.21322 0.89313 0.09972 0.0
C754 C 0.24013 0.89700 0.10100 0.0
C755 C 0.25567 0.88538 0.11947 0.0
C756 C 0.24300 0.86717 0.13982 0.0
C757 C 0.21541 0.86262 0.13924 0.0
N758 N 0.19943 0.87565 0.11887 0.0
H759 H 0.22510 0.91625 0.04568 0.0
H760 H 0.20601 0.94491 0.05837 0.0
H761 H 0.25949 0.85306 0.16168 0.0
H762 H 0.20217 0.84388 0.16013 0.0
N763 N 0.05441 0.82953 0.76371 0.0
C764 C 0.07212 0.84527 0.74617 0.0
O765 O 0.06729 0.84419 0.72033 0.0
C766 C 0.09490 0.86199 0.75719 0.0
C767 C 0.09942 0.86281 0.78374 0.0
C768 C 0.11960 0.87755 0.79509 0.0
C769 C 0.13824 0.89401 0.77789 0.0
C770 C 0.13434 0.89376 0.75050 0.0
N771 N 0.11222 0.87750 0.73914 0.0
H772 H 0.04254 0.83951 0.77832 0.0
H773 H 0.05326 0.80823 0.76203 0.0
H774 H 0.16190 0.91147 0.78943 0.0
H775 H 0.15345 0.91067 0.73261 0.0
N776 N 0.44437 0.88850 0.01674 0.0
C777 C 0.42094 0.87931 0.00010 0.0
O778 O 0.42451 0.87448 0.97522 0.0
C779 C 0.39389 0.87555 0.01289 0.0
C780 C 0.39073 0.88059 0.03909 0.0
C781 C 0.36688 0.87755 0.05143 0.0
C782 C 0.34232 0.86815 0.03581 0.0
C783 C 0.34464 0.86274 0.00884 0.0
N784 N 0.37089 0.86633 0.99636 0.0
H785 H 0.45117 0.87653 0.03306 0.0
H786 H 0.45469 0.90701 0.01226 0.0
H787 H 0.31419 0.86417 0.04855 0.0
H788 H 0.31945 0.85305 0.99257 0.0
N789 N 0.31003 0.90190 0.25573 0.0
C790 C 0.33562 0.89269 0.26656 0.0
O791 O 0.33895 0.89277 0.29263 0.0
C792 C 0.35723 0.88352 0.24868 0.0
C793 C 0.35333 0.88358 0.22204 0.0
C794 C 0.37196 0.87549 0.20468 0.0
C795 C 0.39848 0.86587 0.21489 0.0
C796 C 0.40335 0.86547 0.24212 0.0
N797 N 0.38256 0.87442 0.26013 0.0
H798 H 0.29715 0.88833 0.24439 0.0
H799 H 0.30415 0.92200 0.25906 0.0
H800 H 0.42092 0.85625 0.19621 0.0
H801 H 0.43061 0.85558 0.25283 0.0
N802 N 0.52363 0.07177 0.07896 0.0
C803 C 0.54250 0.09086 0.09202 0.0
O804 O 0.56831 0.08868 0.08741 0.0
C805 C 0.53283 0.11209 0.11000 0.0
C806 C 0.50627 0.11395 0.11439 0.0
C807 C 0.49610 0.13269 0.13034 0.0
C808 C 0.51469 0.15269 0.14413 0.0
C809 C 0.54212 0.15151 0.14018 0.0
N810 N 0.55219 0.13087 0.12273 0.0
H811 H 0.50884 0.07884 0.06509 0.0
H812 H 0.52452 0.05091 0.08317 0.0
H813 H 0.50454 0.17483 0.16277 0.0
H814 H 0.56144 0.17203 0.15430 0.0
N815 N 0.18801 0.71644 0.08134 0.0
C816 C 0.16723 0.70160 0.09623 0.0
O817 O 0.17007 0.67597 0.09938 0.0
C818 C 0.14360 0.71505 0.10747 0.0
C819 C 0.14115 0.74133 0.10402 0.0
C820 C 0.12035 0.75480 0.11369 0.0
C821 C 0.09859 0.74040 0.12910 0.0
C822 C 0.10029 0.71338 0.13312 0.0
N823 N 0.12319 0.69966 0.12226 0.0
H824 H 0.19967 0.73202 0.09127 0.0
H825 H 0.19159 0.71184 0.06070 0.0
H826 H 0.07404 0.75448 0.14086 0.0
H827 H 0.07797 0.69837 0.14898 0.0
N828 N 0.98910 0.81719 0.57655 0.0
C829 C 0.00233 0.83496 0.59634 0.0
O830 O 0.02854 0.83371 0.59949 0.0
C831 C 0.98666 0.85385 0.61245 0.0
C832 C 0.95983 0.85480 0.60884 0.0
C833 C 0.94439 0.87145 0.62265 0.0
C834 C 0.95710 0.89003 0.64313 0.0
C835 C 0.98460 0.88973 0.64749 0.0
N836 N 0.00010 0.87136 0.63205 0.0
H837 H 0.97884 0.82557 0.55971 0.0
H838 H 0.98963 0.79600 0.57880 0.0
H839 H 0.94072 0.90976 0.65981 0.0
H840 H 0.99788 0.90881 0.66855 0.0
N841 N 0.34316 0.71336 0.94745 0.0
C842 C 0.35384 0.70215 0.92276 0.0
O843 O 0.35280 0.67620 0.91982 0.0
C844 C 0.36553 0.71951 0.90161 0.0
C845 C 0.36633 0.74604 0.90506 0.0
C846 C 0.37654 0.76295 0.88674 0.0
C847 C 0.38768 0.75233 0.86112 0.0
C848 C 0.38727 0.72520 0.85674 0.0
N849 N 0.37601 0.70769 0.87716 0.0
H850 H 0.32631 0.72622 0.94635 0.0
H851 H 0.35206 0.70881 0.96649 0.0
H852 H 0.39976 0.77048 0.83909 0.0
H853 H 0.39871 0.71407 0.83041 0.0
N854 N 0.07946 0.24180 0.32934 0.0
C855 C 0.09569 0.23003 0.35057 0.0
O856 O 0.09373 0.20418 0.35377 0.0
C857 C 0.11386 0.24675 0.36803 0.0
C858 C 0.11557 0.27318 0.36434 0.0
C859 C 0.13163 0.28951 0.37934 0.0
C860 C 0.14865 0.27831 0.40131 0.0
C861 C 0.14753 0.25125 0.40581 0.0
N862 N 0.12984 0.23438 0.38906 0.0
H863 H 0.08940 0.25197 0.31317 0.0
H864 H 0.05783 0.24030 0.32988 0.0
H865 H 0.16763 0.29577 0.41941 0.0
H866 H 0.16500 0.23953 0.42841 0.0
N867 N 0.51479 0.90197 0.44476 0.0
C868 C 0.53361 0.89206 0.42493 0.0
O869 O 0.55943 0.89318 0.43092 0.0
C870 C 0.52390 0.88107 0.39878 0.0
C871 C 0.49734 0.88009 0.39311 0.0
C872 C 0.48713 0.87035 0.36989 0.0
C873 C 0.50568 0.85996 0.34899 0.0
C874 C 0.53311 0.86058 0.35397 0.0
N875 N 0.54322 0.87132 0.37940 0.0
H876 H 0.49994 0.88849 0.45316 0.0
H877 H 0.51577 0.92248 0.45089 0.0
H878 H 0.49548 0.84844 0.32180 0.0
H879 H 0.55238 0.84992 0.33254 0.0
N880 N 0.32696 0.27275 0.67762 0.0
C881 C 0.34141 0.29247 0.66121 0.0
O882 O 0.33933 0.31768 0.66748 0.0
C883 C 0.35792 0.28431 0.63811 0.0
C884 C 0.35978 0.25837 0.63210 0.0
C885 C 0.37441 0.24955 0.61155 0.0
C886 C 0.38956 0.26906 0.59420 0.0
C887 C 0.38823 0.29591 0.59965 0.0
N888 N 0.37212 0.30450 0.62211 0.0
H889 H 0.33821 0.25843 0.68858 0.0
H890 H 0.30535 0.27257 0.67873 0.0
H891 H 0.40683 0.26049 0.57021 0.0
H892 H 0.40378 0.31617 0.58188 0.0
N893 N 0.57616 0.72007 0.32591 0.0
C894 C 0.59334 0.70273 0.34161 0.0
O895 O 0.59299 0.67732 0.33549 0.0
C896 C 0.61068 0.71345 0.36384 0.0
C897 C 0.61073 0.73955 0.36971 0.0
C898 C 0.62596 0.75063 0.38949 0.0
C899 C 0.64389 0.73361 0.40609 0.0
C900 C 0.64448 0.70668 0.40075 0.0
N901 N 0.62763 0.69560 0.37914 0.0
H902 H 0.58531 0.73585 0.31440 0.0
H903 H 0.55462 0.71709 0.32588 0.0
H904 H 0.66200 0.74485 0.42917 0.0
H905 H 0.66290 0.68898 0.41775 0.0
N906 N 0.03079 0.82197 0.17851 0.0
C907 C 0.04308 0.83997 0.15883 0.0
O908 O 0.06925 0.83932 0.15553 0.0
C909 C 0.02653 0.85847 0.14304 0.0
C910 C 0.99990 0.85875 0.14675 0.0
C911 C 0.98354 0.87490 0.13311 0.0
C912 C 0.99527 0.89367 0.11273 0.0
C913 C 0.02269 0.89405 0.10827 0.0
N914 N 0.03942 0.87620 0.12352 0.0
H915 H 0.01618 0.80702 0.17195 0.0
H916 H 0.03628 0.82366 0.19930 0.0
H917 H 0.97796 0.91285 0.09625 0.0
H918 H 0.03495 0.91332 0.08731 0.0
N919 N 0.67534 0.82646 0.75707 0.0
C920 C 0.65433 0.84227 0.76919 0.0
O921 O 0.65283 0.84279 0.79537 0.0
C922 C 0.63522 0.85729 0.75246 0.0
C923 C 0.63717 0.85649 0.72567 0.0
C924 C 0.62062 0.86965 0.70931 0.0
C925 C 0.59881 0.88612 0.72085 0.0
C926 C 0.59607 0.88751 0.74827 0.0
N927 N 0.61446 0.87292 0.76518 0.0
H928 H 0.69067 0.83622 0.74528 0.0
H929 H 0.67547 0.80532 0.75991 0.0
H930 H 0.57898 0.90182 0.70337 0.0
H931 H 0.57365 0.90443 0.76036 0.0
N932 N 0.47664 0.85642 0.94977 0.0
C933 C 0.45797 0.86124 0.92756 0.0
O934 O 0.43214 0.86182 0.93280 0.0
C935 C 0.46785 0.86534 0.89988 0.0
C936 C 0.49441 0.86469 0.89501 0.0
C937 C 0.50477 0.86831 0.87049 0.0
C938 C 0.48638 0.87333 0.84713 0.0
C939 C 0.45895 0.87415 0.85121 0.0
N940 N 0.44868 0.87012 0.87812 0.0
H941 H 0.49162 0.87147 0.95517 0.0
H942 H 0.47541 0.83805 0.96059 0.0
H943 H 0.49675 0.87768 0.81833 0.0
H944 H 0.43984 0.87931 0.82726 0.0
N945 N 0.93002 0.27916 0.93822 0.0
C946 C 0.91382 0.25978 0.92243 0.0
O947 O 0.91577 0.23451 0.92822 0.0
C948 C 0.89570 0.26834 0.90048 0.0
C949 C 0.89400 0.29434 0.89495 0.0
C950 C 0.87798 0.30352 0.87544 0.0
C951 C 0.86100 0.28437 0.85876 0.0
C952 C 0.86211 0.25746 0.86375 0.0
N953 N 0.87976 0.24848 0.88509 0.0
H954 H 0.92005 0.29375 0.95002 0.0
H955 H 0.95165 0.27884 0.93805 0.0
H956 H 0.84207 0.29336 0.83597 0.0
H957 H 0.84469 0.23758 0.84667 0.0
N958 N 0.48645 0.16164 0.55747 0.0
C959 C 0.46726 0.15066 0.57690 0.0
O960 O 0.44148 0.15104 0.57089 0.0
C961 C 0.47658 0.13940 0.60268 0.0
C962 C 0.50310 0.13919 0.60837 0.0
C963 C 0.51297 0.12926 0.63126 0.0
C964 C 0.49404 0.11778 0.65175 0.0
C965 C 0.46662 0.11759 0.64673 0.0
N966 N 0.45690 0.12857 0.62166 0.0
H967 H 0.50090 0.14885 0.54863 0.0
H968 H 0.48613 0.18226 0.55206 0.0
H969 H 0.50382 0.10599 0.67854 0.0
H970 H 0.44695 0.10581 0.66772 0.0
N971 N 0.99573 0.30939 0.90860 0.0
C972 C 0.98368 0.33070 0.89312 0.0
O973 O 0.95751 0.32949 0.88905 0.0
C974 C 0.00010 0.35305 0.88229 0.0
C975 C 0.02725 0.35388 0.88676 0.0
C976 C 0.04367 0.37353 0.87764 0.0
C977 C 0.03219 0.39579 0.86170 0.0
C978 C 0.00479 0.39574 0.85663 0.0
N979 N 0.98783 0.37404 0.86693 0.0
H980 H 0.00581 0.31413 0.92724 0.0
H981 H 0.99453 0.28921 0.90143 0.0
H982 H 0.04974 0.41910 0.85052 0.0
H983 H 0.99277 0.41861 0.84022 0.0
N984 N 0.80720 0.78919 0.08251 0.0
C985 C 0.82878 0.80358 0.09733 0.0
O986 O 0.82644 0.82922 0.10118 0.0
C987 C 0.85267 0.78969 0.10773 0.0
C988 C 0.85460 0.76341 0.10357 0.0
C989 C 0.87559 0.74955 0.11246 0.0
C990 C 0.89817 0.76348 0.12777 0.0
C991 C 0.89701 0.79048 0.13250 0.0
N992 N 0.87388 0.80463 0.12247 0.0
H993 H 0.79574 0.77364 0.09229 0.0
H994 H 0.80283 0.79409 0.06207 0.0
H995 H 0.92298 0.74893 0.13865 0.0
H996 H 0.92019 0.80501 0.14825 0.0
N997 N 0.46928 0.56911 0.32395 0.0
C998 C 0.45731 0.58720 0.34324 0.0
O999 O 0.43114 0.58541 0.34663 0.0
C1000 C 0.47420 0.60705 0.35856 0.0
C1001 C 0.50098 0.60850 0.35477 0.0
C1002 C 0.51749 0.62590 0.36798 0.0
C1003 C 0.50610 0.64482 0.38796 0.0
C1004 C 0.47869 0.64403 0.39248 0.0
N1005 N 0.46163 0.62484 0.37770 0.0
H1006 H 0.48367 0.55510 0.33082 0.0
H1007 H 0.46376 0.56981 0.30314 0.0
H1008 H 0.52376 0.66541 0.40395 0.0
H1009 H 0.46677 0.66344 0.41303 0.0
N1010 N 0.93358 0.57321 0.76771 0.0
C1011 C 0.91916 0.58956 0.74848 0.0
O1012 O 0.92349 0.58569 0.72293 0.0
C1013 C 0.90018 0.60996 0.75750 0.0
C1014 C 0.89604 0.61353 0.78378 0.0
C1015 C 0.87911 0.63156 0.79336 0.0
C1016 C 0.86389 0.64874 0.77437 0.0
C1017 C 0.86752 0.64574 0.74720 0.0
N1018 N 0.88606 0.62596 0.73778 0.0
H1019 H 0.92230 0.56008 0.78064 0.0
H1020 H 0.95521 0.57429 0.76893 0.0
H1021 H 0.84406 0.66991 0.78383 0.0
H1022 H 0.85192 0.66335 0.72747 0.0
N1023 N 0.68248 0.56981 0.02333 0.0
C1024 C 0.66665 0.58494 0.04235 0.0
O1025 O 0.66819 0.57866 0.06774 0.0
C1026 C 0.64933 0.60677 0.03331 0.0
C1027 C 0.64811 0.61288 0.00720 0.0
C1028 C 0.63293 0.63242 0.99761 0.0
C1029 C 0.61639 0.64847 0.01639 0.0
C1030 C 0.61703 0.64287 0.04339 0.0
N1031 N 0.63377 0.62153 0.05282 0.0
H1032 H 0.69795 0.57992 0.01200 0.0
H1033 H 0.67871 0.54881 0.02068 0.0
H1034 H 0.59843 0.67125 0.00692 0.0
H1035 H 0.60005 0.65930 0.06290 0.0
N1036 N 0.56726 0.31927 0.28310 0.0
C1037 C 0.58600 0.33813 0.29668 0.0
O1038 O 0.58851 0.33651 0.32276 0.0
C1039 C 0.60173 0.35853 0.28150 0.0
C1040 C 0.59885 0.35978 0.25478 0.0
C1041 C 0.61248 0.37766 0.23976 0.0
C1042 C 0.63191 0.39736 0.25284 0.0
C1043 C 0.63550 0.39680 0.28024 0.0
N1044 N 0.62029 0.37707 0.29565 0.0
H1045 H 0.57490 0.30551 0.26872 0.0
H1046 H 0.54610 0.31916 0.28743 0.0
H1047 H 0.64834 0.41853 0.23695 0.0
H1048 H 0.65549 0.41702 0.29390 0.0
N1049 N 0.91781 0.31079 0.52312 0.0
C1050 C 0.90410 0.32749 0.50367 0.0
O1051 O 0.90510 0.32077 0.47831 0.0
C1052 C 0.88949 0.35136 0.51226 0.0
C1053 C 0.88871 0.35782 0.53836 0.0
C1054 C 0.87581 0.37908 0.54756 0.0
C1055 C 0.86147 0.39675 0.52834 0.0
C1056 C 0.86175 0.39085 0.50135 0.0
N1057 N 0.87598 0.36762 0.49233 0.0
H1058 H 0.90619 0.30067 0.53822 0.0
H1059 H 0.93925 0.30865 0.52235 0.0
H1060 H 0.84619 0.42155 0.53737 0.0
H1061 H 0.84702 0.40894 0.48139 0.0
N1062 N 0.81500 0.33630 0.72463 0.0
C1063 C 0.83230 0.35290 0.70748 0.0
O1064 O 0.82608 0.35413 0.68196 0.0
C1065 C 0.85623 0.36793 0.71851 0.0
C1066 C 0.86218 0.36639 0.74473 0.0
C1067 C 0.88346 0.37950 0.75610 0.0
C1068 C 0.90173 0.39676 0.73928 0.0
C1069 C 0.89637 0.39892 0.71224 0.0
N1070 N 0.87310 0.38435 0.70085 0.0
H1071 H 0.80434 0.34541 0.74070 0.0
H1072 H 0.81295 0.31523 0.72122 0.0
H1073 H 0.92659 0.41246 0.75086 0.0
H1074 H 0.91509 0.41667 0.69475 0.0
N1075 N 0.91628 0.69648 0.96302 0.0
C1076 C 0.90347 0.67310 0.94999 0.0
O1077 O 0.90630 0.67035 0.92407 0.0
C1078 C 0.88768 0.65302 0.96554 0.0
C1079 C 0.88509 0.65624 0.99209 0.0
C1080 C 0.87118 0.63884 0.00742 0.0
C1081 C 0.85772 0.61457 0.99492 0.0
C1082 C 0.85986 0.61047 0.96770 0.0
N1083 N 0.87513 0.62986 0.95194 0.0
H1084 H 0.93168 0.69380 0.97796 0.0
H1085 H 0.91039 0.71614 0.95773 0.0
H1086 H 0.84137 0.59365 0.01119 0.0
H1087 H 0.84606 0.58552 0.95464 0.0
N1088 N 0.69797 0.61059 0.25518 0.0
C1089 C 0.67096 0.61406 0.26597 0.0
O1090 O 0.66803 0.61290 0.29199 0.0
C1091 C 0.64749 0.61875 0.24809 0.0
C1092 C 0.65100 0.61991 0.22150 0.0
C1093 C 0.63071 0.62416 0.20415 0.0
C1094 C 0.60268 0.62785 0.21432 0.0
C1095 C 0.59816 0.62681 0.24150 0.0
N1096 N 0.62076 0.62216 0.25950 0.0
H1097 H 0.70762 0.62661 0.24437 0.0
H1098 H 0.70809 0.59225 0.25801 0.0
H1099 H 0.57830 0.63282 0.19565 0.0
H1100 H 0.56934 0.63058 0.25217 0.0
N1101 N 0.68876 0.40080 0.47408 0.0
C1102 C 0.66461 0.39236 0.45876 0.0
O1103 O 0.66445 0.39649 0.43288 0.0
C1104 C 0.64094 0.37951 0.47202 0.0
C1105 C 0.64160 0.37545 0.49856 0.0
C1106 C 0.62096 0.36388 0.51186 0.0
C1107 C 0.59580 0.35489 0.49696 0.0
C1108 C 0.59426 0.35868 0.46967 0.0
N1109 N 0.61712 0.37129 0.45615 0.0
H1110 H 0.70016 0.38615 0.48441 0.0
H1111 H 0.69506 0.42142 0.47502 0.0
H1112 H 0.57121 0.34143 0.51082 0.0
H1113 H 0.56842 0.34948 0.45414 0.0
N1114 N 0.76306 0.92877 0.56709 0.0
C1115 C 0.74355 0.91499 0.58439 0.0
O1116 O 0.71796 0.92012 0.58127 0.0
C1117 C 0.75235 0.89577 0.60492 0.0
C1118 C 0.77868 0.89081 0.60773 0.0
C1119 C 0.78806 0.87362 0.62582 0.0
C1120 C 0.76879 0.85903 0.64397 0.0
C1121 C 0.74156 0.86353 0.64178 0.0
N1122 N 0.73236 0.88232 0.62189 0.0
H1123 H 0.77496 0.91736 0.55364 0.0
H1124 H 0.76548 0.95005 0.56779 0.0
H1125 H 0.77802 0.83896 0.66528 0.0
H1126 H 0.72155 0.84859 0.66040 0.0
N1127 N 0.25536 0.67279 0.43300 0.0
C1128 C 0.24263 0.65204 0.41600 0.0
O1129 O 0.21631 0.64875 0.41684 0.0
C1130 C 0.25891 0.63514 0.39831 0.0
C1131 C 0.28584 0.63890 0.39776 0.0
C1132 C 0.30182 0.62440 0.38218 0.0
C1133 C 0.28964 0.60292 0.36441 0.0
C1134 C 0.26205 0.59837 0.36434 0.0
N1135 N 0.24559 0.61458 0.38155 0.0
H1136 H 0.26623 0.68912 0.42386 0.0
H1137 H 0.25387 0.67175 0.45439 0.0
H1138 H 0.30665 0.58541 0.34594 0.0
H1139 H 0.24932 0.57628 0.34610 0.0
N1140 N 0.55674 0.01472 0.59273 0.0
C1141 C 0.57793 0.03436 0.60036 0.0
O1142 O 0.57299 0.05961 0.59718 0.0
C1143 C 0.60427 0.02606 0.61137 0.0
C1144 C 0.60885 0.00010 0.61449 0.0
C1145 C 0.63217 0.99115 0.62439 0.0
C1146 C 0.65444 0.01057 0.63250 0.0
C1147 C 0.65061 0.03746 0.62964 0.0
N1148 N 0.62502 0.04617 0.61882 0.0
H1149 H 0.54818 0.00188 0.60775 0.0
H1150 H 0.54979 0.01313 0.57235 0.0
H1151 H 0.68183 0.00187 0.64404 0.0
H1152 H 0.67345 0.05763 0.63793 0.0
N1153 N 0.23264 0.30613 0.86683 0.0
C1154 C 0.21293 0.32630 0.87298 0.0
O1155 O 0.18740 0.31877 0.87383 0.0
C1156 C 0.22146 0.35447 0.87811 0.0
C1157 C 0.24775 0.36171 0.87717 0.0
C1158 C 0.25691 0.38681 0.88168 0.0
C1159 C 0.23743 0.40813 0.88807 0.0
C1160 C 0.21023 0.40158 0.88924 0.0
N1161 N 0.20128 0.37414 0.88422 0.0
H1162 H 0.24785 0.30166 0.88145 0.0
H1163 H 0.23195 0.29589 0.84791 0.0
H1164 H 0.24639 0.43744 0.89349 0.0
H1165 H 0.19000 0.42342 0.89582 0.0
N1166 N 0.38948 0.50987 0.55622 0.0
C1167 C 0.38161 0.52099 0.58203 0.0
O1168 O 0.38031 0.54692 0.58417 0.0
C1169 C 0.37529 0.50355 0.60517 0.0
C1170 C 0.37673 0.47704 0.60249 0.0
C1171 C 0.37122 0.46007 0.62254 0.0
C1172 C 0.36305 0.47059 0.64935 0.0
C1173 C 0.36132 0.49770 0.65301 0.0
N1174 N 0.36748 0.51528 0.63070 0.0
H1175 H 0.37549 0.49693 0.54541 0.0
H1176 H 0.40902 0.51456 0.54812 0.0
H1177 H 0.35640 0.45237 0.67339 0.0
H1178 H 0.35292 0.50873 0.68056 0.0
N1179 N 0.73515 0.06361 0.17431 0.0
C1180 C 0.75347 0.08010 0.15808 0.0
O1181 O 0.77909 0.07442 0.15808 0.0
C1182 C 0.74348 0.10262 0.14208 0.0
C1183 C 0.71714 0.10803 0.14237 0.0
C1184 C 0.70669 0.12803 0.12832 0.0
C1185 C 0.72472 0.14544 0.11140 0.0
C1186 C 0.75193 0.14059 0.11052 0.0
N1187 N 0.76230 0.11870 0.12606 0.0
H1188 H 0.71907 0.05224 0.16465 0.0
H1189 H 0.73771 0.06285 0.19564 0.0
H1190 H 0.71423 0.16883 0.09468 0.0
H1191 H 0.77067 0.15842 0.09313 0.0
N1192 N 0.58428 0.99004 0.93175 0.0
C1193 C 0.60350 0.00313 0.91364 0.0
O1194 O 0.60702 0.02903 0.91554 0.0
C1195 C 0.61860 0.98766 0.89366 0.0
C1196 C 0.61469 0.96114 0.89211 0.0
C1197 C 0.62771 0.94589 0.87458 0.0
C1198 C 0.64760 0.95846 0.85564 0.0
C1199 C 0.65225 0.98565 0.85653 0.0
N1200 N 0.63767 0.00133 0.87586 0.0
H1201 H 0.59137 0.97570 0.94582 0.0
H1202 H 0.56331 0.99468 0.93102 0.0
H1203 H 0.66337 0.94228 0.83491 0.0
H1204 H 0.67272 0.99878 0.83710 0.0
N1205 N 0.82581 0.03006 0.43518 0.0
C1206 C 0.83610 0.01049 0.41637 0.0
O1207 O 0.82913 0.98538 0.41987 0.0
C1208 C 0.85393 0.01868 0.39397 0.0
C1209 C 0.86077 0.04452 0.39076 0.0
C1210 C 0.87674 0.05336 0.37091 0.0
C1211 C 0.88774 0.03400 0.35114 0.0
C1212 C 0.88124 0.00725 0.35368 0.0
N1213 N 0.86387 0.99863 0.37550 0.0
H1214 H 0.81292 0.04525 0.42790 0.0
H1215 H 0.83106 0.02929 0.45605 0.0
H1216 H 0.90623 0.04260 0.32777 0.0
H1217 H 0.89247 0.98715 0.33341 0.0
N1218 N 0.51585 0.69689 0.90324 0.0
C1219 C 0.50114 0.67444 0.89041 0.0
O1220 O 0.47507 0.67634 0.88662 0.0
C1221 C 0.51519 0.65020 0.88193 0.0
C1222 C 0.54192 0.64874 0.88599 0.0
C1223 C 0.55595 0.62746 0.87875 0.0
C1224 C 0.54170 0.60401 0.86553 0.0
C1225 C 0.51425 0.60465 0.86097 0.0
N1226 N 0.49993 0.62813 0.86915 0.0
H1227 H 0.53139 0.70741 0.89237 0.0
H1228 H 0.51119 0.70281 0.92330 0.0
H1229 H 0.55642 0.57882 0.85663 0.0
H1230 H 0.49939 0.58058 0.84734 0.0
N1231 N 0.14478 0.76651 0.54566 0.0
C1232 C 0.13775 0.74739 0.56666 0.0
O1233 O 0.13789 0.72198 0.56064 0.0
C1234 C 0.13063 0.75637 0.59399 0.0
C1235 C 0.13066 0.78251 0.59970 0.0
C1236 C 0.12451 0.79205 0.62400 0.0
C1237 C 0.11720 0.77318 0.64614 0.0
C1238 C 0.11690 0.74615 0.64116 0.0
N1239 N 0.12371 0.73677 0.61453 0.0
H1240 H 0.16224 0.77951 0.54827 0.0
H1241 H 0.13264 0.76756 0.52781 0.0
H1242 H 0.10988 0.78260 0.67461 0.0
H1243 H 0.10939 0.72654 0.66385 0.0
N1244 N 0.98220 0.29473 0.35879 0.0
C1245 C 0.00010 0.31837 0.36098 0.0
O1246 O 0.02607 0.31534 0.35766 0.0
C1247 C 0.98947 0.34502 0.36679 0.0
C1248 C 0.96283 0.34764 0.37007 0.0
C1249 C 0.95176 0.37115 0.37530 0.0
C1250 C 0.96939 0.39590 0.37769 0.0
C1251 C 0.99687 0.39413 0.37447 0.0
N1252 N 0.00793 0.36825 0.36884 0.0
H1253 H 0.96698 0.29375 0.34332 0.0
H1254 H 0.98418 0.27852 0.37247 0.0
H1255 H 0.95818 0.42366 0.38367 0.0
H1256 H 0.01521 0.41954 0.37691 0.0
N1257 N 0.31337 0.76377 0.42166 0.0
C1258 C 0.33594 0.74851 0.41183 0.0
O1259 O 0.33574 0.72289 0.41661 0.0
C1260 C 0.35844 0.76153 0.39690 0.0
C1261 C 0.35818 0.78779 0.39221 0.0
C1262 C 0.37782 0.80086 0.37877 0.0
C1263 C 0.40133 0.78601 0.36832 0.0
C1264 C 0.40243 0.75900 0.37269 0.0
N1265 N 0.38069 0.74572 0.38733 0.0
H1266 H 0.30061 0.77357 0.40757 0.0
H1267 H 0.30957 0.76518 0.44272 0.0
H1268 H 0.42470 0.79961 0.35270 0.0
H1269 H 0.42658 0.74352 0.36199 0.0
N1270 N 0.92727 0.25403 0.32351 0.0
C1271 C 0.91198 0.26655 0.34483 0.0
O1272 O 0.91403 0.29250 0.34738 0.0
C1273 C 0.89466 0.25045 0.36310 0.0
C1274 C 0.89285 0.22389 0.36008 0.0
C1275 C 0.87752 0.20810 0.37582 0.0
C1276 C 0.86149 0.22008 0.39792 0.0
C1277 C 0.86275 0.24729 0.40175 0.0
N1278 N 0.87963 0.26356 0.38419 0.0
H1279 H 0.91661 0.24326 0.30783 0.0
H1280 H 0.94891 0.25556 0.32350 0.0
H1281 H 0.84340 0.20327 0.41686 0.0
H1282 H 0.84631 0.25982 0.42446 0.0
N1283 N 0.02506 0.68822 0.67661 0.0
C1284 C 0.00612 0.66906 0.66375 0.0
O1285 O 0.98041 0.67076 0.66913 0.0
C1286 C 0.01561 0.64826 0.64517 0.0
C1287 C 0.04205 0.64693 0.63994 0.0
C1288 C 0.05204 0.62869 0.62329 0.0
C1289 C 0.03337 0.60866 0.60965 0.0
C1290 C 0.00604 0.60930 0.61445 0.0
N1291 N 0.99617 0.62942 0.63264 0.0
H1292 H 0.03674 0.70172 0.66442 0.0
H1293 H 0.02729 0.68881 0.69800 0.0
H1294 H 0.04331 0.58707 0.59024 0.0
H1295 H 0.98664 0.58874 0.60049 0.0
N1296 N 0.58015 0.24154 0.68268 0.0
C1297 C 0.59190 0.25531 0.65962 0.0
O1298 O 0.58917 0.28110 0.65796 0.0
C1299 C 0.60649 0.24064 0.63865 0.0
C1300 C 0.60907 0.21422 0.64080 0.0
C1301 C 0.62206 0.19969 0.62263 0.0
C1302 C 0.63444 0.21298 0.59868 0.0
C1303 C 0.63228 0.24009 0.59566 0.0
N1304 N 0.61802 0.25498 0.61586 0.0
H1305 H 0.59314 0.23156 0.69643 0.0
H1306 H 0.55877 0.24138 0.68587 0.0
H1307 H 0.64970 0.19765 0.57692 0.0
H1308 H 0.64497 0.25396 0.57104 0.0
N1309 N 0.69986 0.47395 0.16209 0.0
C1310 C 0.68153 0.49239 0.14928 0.0
O1311 O 0.68911 0.51758 0.14815 0.0
C1312 C 0.65511 0.48298 0.13788 0.0
C1313 C 0.64779 0.45707 0.13924 0.0
C1314 C 0.62424 0.44716 0.12929 0.0
C1315 C 0.60483 0.46532 0.11597 0.0
C1316 C 0.61152 0.49209 0.11414 0.0
N1317 N 0.63725 0.50190 0.12520 0.0
H1318 H 0.70794 0.45808 0.15048 0.0
H1319 H 0.70520 0.47624 0.18286 0.0
H1320 H 0.57736 0.45544 0.10404 0.0
H1321 H 0.59165 0.51097 0.10045 0.0
N1322 N 0.67568 0.76374 0.94652 0.0
C1323 C 0.65991 0.74502 0.92956 0.0
O1324 O 0.66046 0.71964 0.93535 0.0
C1325 C 0.64376 0.75436 0.90646 0.0
C1326 C 0.64348 0.78046 0.90096 0.0
C1327 C 0.62927 0.79032 0.88043 0.0
C1328 C 0.61280 0.77187 0.86254 0.0
C1329 C 0.61250 0.74489 0.86746 0.0
N1330 N 0.62821 0.73516 0.88991 0.0
H1331 H 0.66547 0.77866 0.95766 0.0
H1332 H 0.69723 0.76260 0.94786 0.0
H1333 H 0.59592 0.78167 0.83854 0.0
H1334 H 0.59558 0.72572 0.84912 0.0
N1335 N 0.47456 0.41919 0.06745 0.0
C1336 C 0.45527 0.40399 0.08383 0.0
O1337 O 0.42954 0.40532 0.07785 0.0
C1338 C 0.46442 0.38754 0.10657 0.0
C1339 C 0.49089 0.38645 0.11229 0.0
C1340 C 0.50061 0.37193 0.13250 0.0
C1341 C 0.48158 0.35603 0.14980 0.0
C1342 C 0.45421 0.35656 0.14465 0.0
N1343 N 0.44465 0.37258 0.12254 0.0
H1344 H 0.48930 0.40880 0.05617 0.0
H1345 H 0.47402 0.44049 0.06669 0.0
H1346 H 0.49119 0.33884 0.17342 0.0
H1347 H 0.43444 0.34023 0.16237 0.0
N1348 N 0.91841 0.47778 0.81774 0.0
C1349 C 0.90601 0.46143 0.83872 0.0
O1350 O 0.91079 0.43593 0.83884 0.0
C1351 C 0.88850 0.47322 0.85929 0.0
C1352 C 0.88392 0.49939 0.85878 0.0
C1353 C 0.86837 0.51141 0.87679 0.0
C1354 C 0.85526 0.49542 0.89866 0.0
C1355 C 0.85942 0.46846 0.89995 0.0
N1356 N 0.87642 0.45634 0.88000 0.0
H1357 H 0.93251 0.49361 0.82324 0.0
H1358 H 0.91351 0.47405 0.79705 0.0
H1359 H 0.83711 0.50778 0.92011 0.0
H1360 H 0.84600 0.45182 0.92241 0.0
N1361 N 0.28913 0.06688 0.56642 0.0
C1362 C 0.30172 0.08871 0.58211 0.0
O1363 O 0.32773 0.09338 0.57953 0.0
C1364 C 0.28565 0.10515 0.60045 0.0
C1365 C 0.25902 0.10002 0.60273 0.0
C1366 C 0.24323 0.11412 0.61886 0.0
C1367 C 0.25527 0.13669 0.63530 0.0
C1368 C 0.28255 0.14265 0.63358 0.0
N1369 N 0.29883 0.12683 0.61584 0.0
H1370 H 0.27382 0.07117 0.55185 0.0
H1371 H 0.29510 0.04678 0.56942 0.0
H1372 H 0.23845 0.15382 0.65432 0.0
H1373 H 0.29514 0.16588 0.65045 0.0
N1374 N 0.18445 0.02286 0.92793 0.0
C1375 C 0.16471 0.03800 0.91285 0.0
O1376 O 0.16366 0.06362 0.91760 0.0
C1377 C 0.14636 0.02486 0.89277 0.0
C1378 C 0.14783 0.99859 0.88822 0.0
C1379 C 0.13192 0.98541 0.87030 0.0
C1380 C 0.11141 0.00010 0.85438 0.0
C1381 C 0.10920 0.02714 0.85841 0.0
N1382 N 0.12687 0.04054 0.87802 0.0
H1383 H 0.20014 0.01311 0.91737 0.0
H1384 H 0.18329 0.02149 0.94932 0.0
H1385 H 0.09239 0.98640 0.83341 0.0
H1386 H 0.08812 0.04247 0.84209 0.0
N1387 N 0.79227 0.45088 0.36817 0.0
C1388 C 0.80313 0.42415 0.36787 0.0
O1389 O 0.82933 0.42205 0.36593 0.0
C1390 C 0.78514 0.40004 0.36969 0.0
C1391 C 0.75837 0.40268 0.37171 0.0
C1392 C 0.74092 0.38176 0.37350 0.0
C1393 C 0.75116 0.35399 0.37330 0.0
C1394 C 0.77852 0.35035 0.37125 0.0
N1395 N 0.79663 0.37361 0.36936 0.0
H1396 H 0.78168 0.45753 0.38550 0.0
H1397 H 0.79482 0.46375 0.35126 0.0
H1398 H 0.73238 0.32893 0.37529 0.0
H1399 H 0.78927 0.32180 0.37103 0.0
N1400 N 0.44557 0.25258 0.13414 0.0
C1401 C 0.42155 0.26613 0.12484 0.0
O1402 O 0.42364 0.29185 0.12081 0.0
C1403 C 0.39553 0.25131 0.12009 0.0
C1404 C 0.39388 0.22495 0.12432 0.0
C1405 C 0.37103 0.21028 0.12037 0.0
C1406 C 0.34591 0.22333 0.11082 0.0
C1407 C 0.34668 0.25037 0.10622 0.0
N1408 N 0.37189 0.26542 0.11078 0.0
H1409 H 0.45395 0.23742 0.12179 0.0
H1410 H 0.45477 0.25771 0.15310 0.0
H1411 H 0.31886 0.20782 0.10581 0.0
H1412 H 0.32090 0.26400 0.09638 0.0
N1413 N 0.98692 0.65983 0.05662 0.0
C1414 C 0.96787 0.64940 0.07647 0.0
O1415 O 0.94205 0.64958 0.07058 0.0
C1416 C 0.97737 0.63892 0.10252 0.0
C1417 C 0.00392 0.63890 0.10809 0.0
C1418 C 0.01395 0.62966 0.13121 0.0
C1419 C 0.99516 0.61876 0.15213 0.0
C1420 C 0.96771 0.61839 0.14726 0.0
N1421 N 0.95782 0.62861 0.12192 0.0
H1422 H 0.00134 0.64681 0.04809 0.0
H1423 H 0.98653 0.68028 0.05062 0.0
H1424 H 0.00512 0.60777 0.17922 0.0
H1425 H 0.94820 0.60719 0.16869 0.0
N1426 N 0.18328 0.22855 0.93386 0.0
C1427 C 0.16385 0.24539 0.92040 0.0
O1428 O 0.16449 0.27085 0.92630 0.0
C1429 C 0.14395 0.23410 0.90066 0.0
C1430 C 0.14371 0.20797 0.89491 0.0
C1431 C 0.12633 0.19642 0.87721 0.0
C1432 C 0.10606 0.21292 0.86292 0.0
C1433 C 0.10559 0.23986 0.86822 0.0
N1434 N 0.12480 0.25146 0.88754 0.0
H1435 H 0.19788 0.21841 0.92216 0.0
H1436 H 0.18300 0.22632 0.95521 0.0
H1437 H 0.08541 0.20112 0.84230 0.0
H1438 H 0.08478 0.25703 0.85359 0.0
N1439 N 0.49128 0.31572 0.58517 0.0
C1440 C 0.47843 0.33479 0.60283 0.0
O1441 O 0.45220 0.33261 0.60571 0.0
C1442 C 0.49449 0.35601 0.61710 0.0
C1443 C 0.52135 0.35783 0.61386 0.0
C1444 C 0.53714 0.37647 0.62620 0.0
C1445 C 0.52484 0.39641 0.64450 0.0
C1446 C 0.49733 0.39529 0.64841 0.0
N1447 N 0.48106 0.37474 0.63462 0.0
H1448 H 0.50584 0.30258 0.59336 0.0
H1449 H 0.48623 0.31485 0.56423 0.0
H1450 H 0.54165 0.41844 0.65940 0.0
H1451 H 0.48447 0.41575 0.66723 0.0
N1452 N 0.17071 0.31614 0.23347 0.0
C1453 C 0.15552 0.33323 0.21556 0.0
O1454 O 0.15903 0.33064 0.18972 0.0
C1455 C 0.13668 0.35298 0.22622 0.0
C1456 C 0.13338 0.35525 0.25278 0.0
C1457 C 0.11662 0.37262 0.26381 0.0
C1458 C 0.10063 0.39053 0.24622 0.0
C1459 C 0.10339 0.38888 0.21882 0.0
N1460 N 0.12178 0.36976 0.20781 0.0
H1461 H 0.15998 0.30229 0.24609 0.0
H1462 H 0.19236 0.31738 0.23401 0.0
H1463 H 0.08095 0.41102 0.25738 0.0
H1464 H 0.08699 0.40725 0.20053 0.0
N1465 N 0.40851 0.43529 0.99853 0.0
C1466 C 0.39517 0.41141 0.00951 0.0
O1467 O 0.39653 0.40781 0.03545 0.0
C1468 C 0.38053 0.39176 0.99191 0.0
C1469 C 0.37937 0.39590 0.96540 0.0
C1470 C 0.36641 0.37902 0.94830 0.0
C1471 C 0.35244 0.35429 0.95868 0.0
C1472 C 0.35312 0.34924 0.98578 0.0
N1473 N 0.36740 0.36811 0.00351 0.0
H1474 H 0.39661 0.44972 0.98843 0.0
H1475 H 0.42995 0.43840 0.00010 0.0
H1476 H 0.33713 0.33391 0.94030 0.0
H1477 H 0.33878 0.32381 0.99667 0.0
N1478 N 0.45979 0.60870 0.73489 0.0
C1479 C 0.43757 0.61339 0.75323 0.0
O1480 O 0.44274 0.61302 0.77901 0.0
C1481 C 0.40995 0.61839 0.74308 0.0
C1482 C 0.40515 0.61872 0.71658 0.0
C1483 C 0.38069 0.62320 0.70599 0.0
C1484 C 0.35732 0.62811 0.72404 0.0
C1485 C 0.36134 0.62796 0.75140 0.0
N1486 N 0.38819 0.62302 0.76193 0.0
H1487 H 0.46602 0.62409 0.72124 0.0
H1488 H 0.46980 0.59009 0.73504 0.0
H1489 H 0.32860 0.63341 0.71340 0.0
H1490 H 0.33739 0.63301 0.77016 0.0
N1491 N 0.19537 0.67114 0.48537 0.0
C1492 C 0.17275 0.66046 0.50105 0.0
O1493 O 0.17205 0.66656 0.52657 0.0
C1494 C 0.15119 0.64321 0.48854 0.0
C1495 C 0.15231 0.63726 0.46234 0.0
C1496 C 0.13348 0.62184 0.44970 0.0
C1497 C 0.10992 0.61047 0.46498 0.0
C1498 C 0.10796 0.61607 0.49194 0.0
N1499 N 0.12884 0.63286 0.50475 0.0
H1500 H 0.19147 0.68435 0.46905 0.0
H1501 H 0.21567 0.66586 0.49009 0.0
H1502 H 0.08744 0.59258 0.45187 0.0
H1503 H 0.08375 0.60445 0.50785 0.0
N1504 N 0.09271 0.55653 0.28229 0.0
C1505 C 0.10669 0.57875 0.29623 0.0
O1506 O 0.11088 0.57665 0.32207 0.0
C1507 C 0.11587 0.60300 0.28166 0.0
C1508 C 0.11138 0.60468 0.25517 0.0
C1509 C 0.11920 0.62598 0.24070 0.0
C1510 C 0.13361 0.64921 0.25415 0.0
C1511 C 0.13865 0.64834 0.28134 0.0
N1512 N 0.12980 0.62486 0.29615 0.0
H1513 H 0.10300 0.54599 0.26689 0.0
H1514 H 0.07237 0.55078 0.28738 0.0
H1515 H 0.14323 0.67441 0.23890 0.0
H1516 H 0.15349 0.67219 0.29537 0.0
N1517 N 0.15586 0.30113 0.04411 0.0
C1518 C 0.14516 0.32576 0.05488 0.0
O1519 O 0.14409 0.32849 0.08096 0.0
C1520 C 0.13575 0.34707 0.03693 0.0
C1521 C 0.13709 0.34384 0.01028 0.0
C1522 C 0.12901 0.36231 0.99285 0.0
C1523 C 0.11792 0.38787 0.00300 0.0
C1524 C 0.11618 0.39202 0.03024 0.0
N1525 N 0.12518 0.37144 0.04832 0.0
H1526 H 0.17383 0.30208 0.03226 0.0
H1527 H 0.14590 0.28230 0.04798 0.0
H1528 H 0.10822 0.41007 0.98425 0.0
H1529 H 0.10478 0.41830 0.04089 0.0
N1530 N 0.88251 0.50823 0.55671 0.0
C1531 C 0.87513 0.49425 0.58133 0.0
O1532 O 0.87134 0.46834 0.58012 0.0
C1533 C 0.87198 0.50886 0.60698 0.0
C1534 C 0.87601 0.53540 0.60774 0.0
C1535 C 0.87359 0.54988 0.63025 0.0
C1536 C 0.86608 0.53638 0.65596 0.0
C1537 C 0.86175 0.50914 0.65610 0.0
N1538 N 0.86461 0.49431 0.63124 0.0
H1539 H 0.90161 0.51886 0.55572 0.0
H1540 H 0.86900 0.50788 0.53978 0.0
H1541 H 0.86290 0.55165 0.68267 0.0
H1542 H 0.85400 0.49506 0.68251 0.0
N1543 N 0.00636 0.07046 0.91845 0.0
C1544 C 0.01914 0.08906 0.89965 0.0
O1545 O 0.04528 0.08797 0.89635 0.0
C1546 C 0.00312 0.10865 0.88471 0.0
C1547 C 0.97635 0.10937 0.88839 0.0
C1548 C 0.96060 0.12651 0.87550 0.0
C1549 C 0.97284 0.14593 0.85602 0.0
C1550 C 0.00010 0.14589 0.85163 0.0
N1551 N 0.01649 0.12696 0.86605 0.0
H1552 H 0.99143 0.05614 0.91119 0.0
H1553 H 0.01180 0.07107 0.93930 0.0
H1554 H 0.95607 0.16625 0.84043 0.0
H1555 H 0.01306 0.16583 0.83160 0.0
N1556 N 0.45774 0.15024 0.26127 0.0
C1557 C 0.43522 0.14232 0.24346 0.0
O1558 O 0.43972 0.14138 0.21766 0.0
C1559 C 0.40804 0.13553 0.25415 0.0
C1560 C 0.40392 0.13659 0.28066 0.0
C1561 C 0.37989 0.13065 0.29173 0.0
C1562 C 0.35624 0.12241 0.27424 0.0
C1563 C 0.35955 0.12105 0.24689 0.0
N1564 N 0.38595 0.12767 0.23584 0.0
H1565 H 0.46474 0.13640 0.27589 0.0
H1566 H 0.46721 0.16967 0.25977 0.0
H1567 H 0.32797 0.11527 0.28546 0.0
H1568 H 0.33530 0.11258 0.22871 0.0
N1569 N 0.12817 0.05018 0.51879 0.0
C1570 C 0.13005 0.07149 0.53890 0.0
O1571 O 0.13010 0.06476 0.56421 0.0
C1572 C 0.13185 0.09992 0.53100 0.0
C1573 C 0.13180 0.10633 0.50494 0.0
C1574 C 0.13345 0.13162 0.49635 0.0
C1575 C 0.13543 0.15410 0.51625 0.0
C1576 C 0.13554 0.14843 0.54323 0.0
N1577 N 0.13373 0.12075 0.55157 0.0
H1578 H 0.14446 0.04782 0.50506 0.0
H1579 H 0.11070 0.03702 0.51775 0.0
H1580 H 0.13739 0.18369 0.50796 0.0
H1581 H 0.13758 0.17147 0.56389 0.0
N1582 N 0.44401 0.11357 0.49988 0.0
C1583 C 0.41925 0.12354 0.51147 0.0
O1584 O 0.41872 0.12743 0.53743 0.0
C1585 C 0.39538 0.12910 0.49445 0.0
C1586 C 0.39642 0.12500 0.46790 0.0
C1587 C 0.37562 0.12968 0.45128 0.0
C1588 C 0.34985 0.13992 0.46228 0.0
C1589 C 0.34790 0.14442 0.48945 0.0
N1590 N 0.37095 0.13906 0.50663 0.0
H1591 H 0.45498 0.12560 0.48572 0.0
H1592 H 0.45117 0.09444 0.50545 0.0
H1593 H 0.32505 0.14578 0.44448 0.0
H1594 H 0.32142 0.15497 0.50096 0.0
N1595 N 0.06368 0.16656 0.73071 0.0
C1596 C 0.08063 0.15171 0.74914 0.0
O1597 O 0.07461 0.15199 0.77463 0.0
C1598 C 0.10397 0.13675 0.73940 0.0
C1599 C 0.10972 0.13672 0.71319 0.0
C1600 C 0.13047 0.12357 0.70296 0.0
C1601 C 0.14836 0.10807 0.72111 0.0
C1602 C 0.14320 0.10755 0.74819 0.0
N1603 N 0.12050 0.12210 0.75832 0.0
H1604 H 0.05256 0.15604 0.71517 0.0
H1605 H 0.06235 0.18775 0.73267 0.0
H1606 H 0.17261 0.09244 0.71089 0.0
H1607 H 0.16153 0.09163 0.76705 0.0
N1608 N 0.07125 0.91977 0.00656 0.0
C1609 C 0.08956 0.89996 0.01701 0.0
O1610 O 0.09147 0.89729 0.04304 0.0
C1611 C 0.10556 0.88333 0.99878 0.0
C1612 C 0.10323 0.88639 0.97218 0.0
C1613 C 0.11702 0.87199 0.95452 0.0
C1614 C 0.13600 0.85143 0.96433 0.0
C1615 C 0.13902 0.84762 0.99150 0.0
N1616 N 0.12366 0.86369 0.00985 0.0
H1617 H 0.05438 0.91338 0.99420 0.0
H1618 H 0.07461 0.94050 0.01118 0.0
H1619 H 0.15257 0.83408 0.94529 0.0
H1620 H 0.15853 0.82648 0.00180 0.0
N1621 N 0.23737 0.30642 0.11865 0.0
C1622 C 0.22645 0.33313 0.11839 0.0
O1623 O 0.20024 0.33518 0.11618 0.0
C1624 C 0.24443 0.35728 0.12055 0.0
C1625 C 0.27122 0.35469 0.12285 0.0
C1626 C 0.28867 0.37564 0.12496 0.0
C1627 C 0.27838 0.40340 0.12481 0.0
C1628 C 0.25099 0.40699 0.12249 0.0
N1629 N 0.23290 0.38369 0.12025 0.0
H1630 H 0.24813 0.29990 0.13606 0.0
H1631 H 0.23467 0.29344 0.10163 0.0
H1632 H 0.29715 0.42850 0.12715 0.0
H1633 H 0.24020 0.43552 0.12231 0.0
N1634 N 0.79024 0.07416 0.82439 0.0
C1635 C 0.80319 0.09322 0.84312 0.0
O1636 O 0.82943 0.09704 0.84181 0.0
C1637 C 0.78722 0.10785 0.86306 0.0
C1638 C 0.76037 0.10365 0.86400 0.0
C1639 C 0.74465 0.11623 0.88145 0.0
C1640 C 0.75706 0.13596 0.90101 0.0
C1641 C 0.78459 0.14090 0.90076 0.0
N1642 N 0.80077 0.12679 0.88149 0.0
H1643 H 0.77566 0.08099 0.81016 0.0
H1644 H 0.79522 0.05355 0.82483 0.0
H1645 H 0.74036 0.15123 0.92171 0.0
H1646 H 0.79756 0.16119 0.92085 0.0
N1647 N 0.19293 0.51442 0.07969 0.0
C1648 C 0.17414 0.49749 0.09494 0.0
O1649 O 0.17883 0.47202 0.09637 0.0
C1650 C 0.15045 0.50869 0.10843 0.0
C1651 C 0.14609 0.53485 0.10672 0.0
C1652 C 0.12512 0.54635 0.11847 0.0
C1653 C 0.10536 0.52976 0.13433 0.0
C1654 C 0.10906 0.50279 0.13661 0.0
N1655 N 0.13206 0.49124 0.12353 0.0
H1656 H 0.20421 0.53015 0.08979 0.0
H1657 H 0.19544 0.51119 0.05862 0.0
H1658 H 0.08075 0.54150 0.14842 0.0
H1659 H 0.08881 0.48553 0.15291 0.0
N1660 N 0.42464 0.32231 0.76585 0.0
C1661 C 0.41074 0.34093 0.74848 0.0
O1662 O 0.41593 0.34038 0.72281 0.0
C1663 C 0.39133 0.35995 0.75949 0.0
C1664 C 0.38631 0.36012 0.78585 0.0
C1665 C 0.36895 0.37671 0.79716 0.0
C1666 C 0.35423 0.39613 0.78013 0.0
C1667 C 0.35878 0.39664 0.75294 0.0
N1668 N 0.37775 0.37829 0.74160 0.0
H1669 H 0.41303 0.30758 0.77664 0.0
H1670 H 0.44623 0.32332 0.76782 0.0
H1671 H 0.33396 0.41585 0.79164 0.0
H1672 H 0.34370 0.41658 0.73521 0.0
N1673 N 0.36019 0.70125 0.54251 0.0
C1674 C 0.36899 0.67587 0.55321 0.0
O1675 O 0.37138 0.67363 0.57925 0.0
C1676 C 0.37508 0.65327 0.53522 0.0
C1677 C 0.37244 0.65602 0.50860 0.0
C1678 C 0.37752 0.63639 0.49115 0.0
C1679 C 0.38658 0.61003 0.50122 0.0
C1680 C 0.38956 0.60632 0.52842 0.0
N1681 N 0.38382 0.62816 0.54653 0.0
H1682 H 0.34156 0.70180 0.53137 0.0
H1683 H 0.37218 0.71916 0.54574 0.0
H1684 H 0.39282 0.58649 0.48244 0.0
H1685 H 0.39888 0.57922 0.53899 0.0
N1686 N 0.24134 0.15877 0.31141 0.0
C1687 C 0.22251 0.14863 0.33160 0.0
O1688 O 0.19677 0.15285 0.32808 0.0
C1689 C 0.23214 0.13401 0.35542 0.0
C1690 C 0.25861 0.12989 0.35857 0.0
C1691 C 0.26874 0.11676 0.37957 0.0
C1692 C 0.25018 0.10600 0.40075 0.0
C1693 C 0.22283 0.10978 0.39832 0.0
N1694 N 0.21282 0.12412 0.37523 0.0
H1695 H 0.25303 0.14500 0.30025 0.0
H1696 H 0.24347 0.17974 0.30775 0.0
H1697 H 0.26027 0.09070 0.42549 0.0
H1698 H 0.20355 0.09877 0.42005 0.0
N1699 N 0.75503 0.81555 0.41311 0.0
C1700 C 0.76509 0.84091 0.40222 0.0
O1701 O 0.79128 0.84525 0.40136 0.0
C1702 C 0.74631 0.86120 0.39242 0.0
C1703 C 0.71956 0.85629 0.39346 0.0
C1704 C 0.70141 0.87370 0.38487 0.0
C1705 C 0.71081 0.89994 0.37354 0.0
C1706 C 0.73813 0.90582 0.37210 0.0
N1707 N 0.75700 0.88634 0.38163 0.0
H1708 H 0.74341 0.80205 0.40045 0.0
H1709 H 0.75919 0.81043 0.43353 0.0
H1710 H 0.69120 0.92100 0.36327 0.0
H1711 H 0.74801 0.93282 0.36045 0.0
N1712 N 0.83101 0.93829 0.48072 0.0
C1713 C 0.84279 0.92067 0.46088 0.0
O1714 O 0.84184 0.92772 0.43567 0.0
C1715 C 0.85546 0.89553 0.46891 0.0
C1716 C 0.85624 0.88875 0.49486 0.0
C1717 C 0.86744 0.86635 0.50358 0.0
C1718 C 0.87978 0.84770 0.48394 0.0
C1719 C 0.87943 0.85389 0.45708 0.0
N1720 N 0.86708 0.87836 0.44861 0.0
H1721 H 0.84374 0.94729 0.49601 0.0
H1722 H 0.80986 0.94222 0.48004 0.0
H1723 H 0.89304 0.82157 0.49239 0.0
H1724 H 0.89210 0.83480 0.43669 0.0
N1725 N 0.83585 0.17655 0.25027 0.0
C1726 C 0.85478 0.15870 0.26307 0.0
O1727 O 0.85713 0.15957 0.28922 0.0
C1728 C 0.87091 0.14013 0.24703 0.0
C1729 C 0.86813 0.13957 0.22026 0.0
C1730 C 0.88200 0.12323 0.20450 0.0
C1731 C 0.90161 0.10458 0.21676 0.0
C1732 C 0.90512 0.10449 0.24419 0.0
N1733 N 0.88964 0.12254 0.26041 0.0
H1734 H 0.81895 0.16824 0.23909 0.0
H1735 H 0.83879 0.19774 0.25201 0.0
H1736 H 0.91832 0.08520 0.20000 0.0
H1737 H 0.92528 0.08534 0.25700 0.0
N1738 N 0.81582 0.97853 0.07170 0.0
C1739 C 0.83536 0.96325 0.08688 0.0
O1740 O 0.83616 0.93760 0.08223 0.0
C1741 C 0.85376 0.97629 0.10698 0.0
C1742 C 0.85260 0.00261 0.11137 0.0
C1743 C 0.86869 0.01572 0.12919 0.0
C1744 C 0.88903 0.00010 0.14519 0.0
C1745 C 0.89092 0.97380 0.14133 0.0
N1746 N 0.87307 0.96047 0.12181 0.0
H1747 H 0.82295 0.99403 0.05859 0.0
H1748 H 0.79457 0.97433 0.07361 0.0
H1749 H 0.90824 0.01452 0.16605 0.0
H1750 H 0.91182 0.95832 0.15772 0.0
N1751 N 0.25907 0.69500 0.62840 0.0
C1752 C 0.26944 0.66807 0.62777 0.0
O1753 O 0.29565 0.66554 0.62701 0.0
C1754 C 0.25094 0.64424 0.62796 0.0
C1755 C 0.22415 0.64733 0.62879 0.0
C1756 C 0.20624 0.62669 0.62909 0.0
C1757 C 0.21597 0.59872 0.62848 0.0
C1758 C 0.24332 0.59462 0.62762 0.0
N1759 N 0.26193 0.61760 0.62733 0.0
H1760 H 0.24776 0.70130 0.64540 0.0
H1761 H 0.26270 0.70837 0.61206 0.0
H1762 H 0.19664 0.57395 0.62877 0.0
H1763 H 0.25353 0.56587 0.62700 0.0
N1764 N 0.20770 0.45307 0.37252 0.0
C1765 C 0.18041 0.44103 0.37261 0.0
O1766 O 0.17789 0.41500 0.37174 0.0
C1767 C 0.15624 0.45767 0.37363 0.0
C1768 C 0.15933 0.48430 0.37455 0.0
C1769 C 0.13837 0.50058 0.37558 0.0
C1770 C 0.11005 0.48910 0.37573 0.0
C1771 C 0.10593 0.46184 0.37480 0.0
N1772 N 0.12925 0.44503 0.37371 0.0
H1773 H 0.21462 0.46482 0.38942 0.0
H1774 H 0.22070 0.45022 0.35577 0.0
H1775 H 0.08490 0.50649 0.37688 0.0
H1776 H 0.07681 0.44983 0.37495 0.0
N1777 N 0.31021 0.54496 0.82980 0.0
C1778 C 0.33408 0.55704 0.84311 0.0
O1779 O 0.33863 0.58271 0.84035 0.0
C1780 C 0.35266 0.54083 0.85925 0.0
C1781 C 0.34756 0.51458 0.86182 0.0
C1782 C 0.36345 0.49872 0.87618 0.0
C1783 C 0.38813 0.51025 0.89018 0.0
C1784 C 0.39415 0.53713 0.88808 0.0
N1785 N 0.37633 0.55350 0.87231 0.0
H1786 H 0.29463 0.53572 0.84168 0.0
H1787 H 0.30824 0.54532 0.80839 0.0
H1788 H 0.40740 0.49332 0.90706 0.0
H1789 H 0.41953 0.54920 0.90243 0.0
N1790 N 0.80935 0.75237 0.65713 0.0
C1791 C 0.83007 0.76513 0.64045 0.0
O1792 O 0.82887 0.79081 0.63644 0.0
C1793 C 0.85185 0.74957 0.62834 0.0
C1794 C 0.85269 0.72329 0.63277 0.0
C1795 C 0.87185 0.70800 0.62253 0.0
C1796 C 0.89351 0.72024 0.60532 0.0
C1797 C 0.89342 0.74718 0.60025 0.0
N1798 N 0.87227 0.76291 0.61178 0.0
H1799 H 0.81520 0.74301 0.67548 0.0
H1800 H 0.78850 0.75234 0.65114 0.0
H1801 H 0.91621 0.70399 0.59282 0.0
H1802 H 0.91566 0.75997 0.58254 0.0
N1803 N 0.02924 0.15827 0.44253 0.0
C1804 C 0.04778 0.14783 0.42271 0.0
O1805 O 0.07358 0.14813 0.42877 0.0
C1806 C 0.03781 0.13720 0.39650 0.0
C1807 C 0.01128 0.13707 0.39077 0.0
C1808 C 0.00010 0.12769 0.36749 0.0
C1809 C 0.01908 0.11678 0.34661 0.0
C1810 C 0.04648 0.11653 0.35165 0.0
N1811 N 0.05684 0.12690 0.37714 0.0
H1812 H 0.01396 0.14523 0.45084 0.0
H1813 H 0.03086 0.17874 0.44871 0.0
H1814 H 0.00862 0.10565 0.31936 0.0
H1815 H 0.06545 0.10533 0.33025 0.0
N1816 N 0.54939 0.27568 0.10797 0.0
C1817 C 0.57430 0.29072 0.11487 0.0
O1818 O 0.57279 0.31637 0.11918 0.0
C1819 C 0.60057 0.27745 0.11694 0.0
C1820 C 0.60161 0.25113 0.11248 0.0
C1821 C 0.62464 0.23782 0.11408 0.0
C1822 C 0.65066 0.25242 0.12111 0.0
C1823 C 0.65053 0.27948 0.12586 0.0
N1824 N 0.62509 0.29303 0.12389 0.0
H1825 H 0.54223 0.26018 0.12105 0.0
H1826 H 0.53836 0.28006 0.09002 0.0
H1827 H 0.67797 0.23853 0.12334 0.0
H1828 H 0.67724 0.29470 0.13312 0.0
N1829 N 0.72493 0.44106 0.57686 0.0
C1830 C 0.74276 0.42504 0.59330 0.0
O1831 O 0.76862 0.43139 0.59362 0.0
C1832 C 0.73203 0.40224 0.60917 0.0
C1833 C 0.70546 0.39614 0.60856 0.0
C1834 C 0.69434 0.37585 0.62246 0.0
C1835 C 0.71185 0.35890 0.63960 0.0
C1836 C 0.73927 0.36446 0.64082 0.0
N1837 N 0.75037 0.38664 0.62541 0.0
H1838 H 0.70937 0.45201 0.58633 0.0
H1839 H 0.72734 0.44189 0.55555 0.0
H1840 H 0.70059 0.33522 0.65617 0.0
H1841 H 0.75747 0.34711 0.65842 0.0
N1842 N 0.33183 0.97929 0.31448 0.0
C1843 C 0.34309 0.99847 0.33409 0.0
O1844 O 0.33913 0.02379 0.33008 0.0
C1845 C 0.35857 0.98964 0.35786 0.0
C1846 C 0.36233 0.96358 0.36157 0.0
C1847 C 0.37606 0.95417 0.38265 0.0
C1848 C 0.38794 0.97310 0.40326 0.0
C1849 C 0.38456 0.00010 0.40025 0.0
N1850 N 0.36955 0.00929 0.37710 0.0
H1851 H 0.31689 0.96472 0.32069 0.0
H1852 H 0.33840 0.97975 0.29408 0.0
H1853 H 0.40397 0.96383 0.42805 0.0
H1854 H 0.39673 0.01971 0.42139 0.0
N1855 N 0.76764 0.67703 0.06772 0.0
C1856 C 0.78755 0.66261 0.08331 0.0
O1857 O 0.81308 0.66968 0.08080 0.0
C1858 C 0.77923 0.64061 0.10145 0.0
C1859 C 0.75295 0.63374 0.10373 0.0
C1860 C 0.74397 0.61410 0.11980 0.0
C1861 C 0.76366 0.59879 0.13617 0.0
C1862 C 0.79085 0.60518 0.13445 0.0
N1863 N 0.79961 0.62660 0.11677 0.0
H1864 H 0.75268 0.68810 0.07798 0.0
H1865 H 0.76795 0.67657 0.04624 0.0
H1866 H 0.75492 0.57594 0.15512 0.0
H1867 H 0.81130 0.58952 0.15125 0.0
N1868 N 0.58792 0.50886 0.43809 0.0
C1869 C 0.60043 0.52837 0.42003 0.0
O1870 O 0.59722 0.55368 0.42513 0.0
C1871 C 0.61630 0.51990 0.39659 0.0
C1872 C 0.61934 0.49386 0.39180 0.0
C1873 C 0.63348 0.48476 0.37103 0.0
C1874 C 0.64668 0.50405 0.35201 0.0
C1875 C 0.64407 0.53099 0.35617 0.0
N1876 N 0.62856 0.53988 0.37894 0.0
H1877 H 0.60049 0.49577 0.44921 0.0
H1878 H 0.56640 0.50761 0.44023 0.0
H1879 H 0.66326 0.49515 0.32766 0.0
H1880 H 0.65760 0.55102 0.33668 0.0
N1881 N 0.29222 0.95016 0.87579 0.0
C1882 C 0.30224 0.92312 0.87426 0.0
O1883 O 0.32842 0.92030 0.87356 0.0
C1884 C 0.28345 0.89952 0.87351 0.0
C1885 C 0.25671 0.90290 0.87430 0.0
C1886 C 0.23854 0.88246 0.87377 0.0
C1887 C 0.24791 0.85441 0.87223 0.0
C1888 C 0.27520 0.85000 0.87138 0.0
N1889 N 0.29410 0.87276 0.87201 0.0
H1890 H 0.28087 0.95600 0.89294 0.0
H1891 H 0.29613 0.96405 0.85996 0.0
H1892 H 0.22828 0.82986 0.87154 0.0
H1893 H 0.28505 0.82116 0.86980 0.0
N1894 N 0.44515 0.02631 0.12899 0.0
C1895 C 0.42320 0.04509 0.12825 0.0
O1896 O 0.42958 0.07059 0.12890 0.0
C1897 C 0.39452 0.03567 0.12684 0.0
C1898 C 0.38847 0.00944 0.12616 0.0
C1899 C 0.36299 0.99990 0.12480 0.0
C1900 C 0.33985 0.01803 0.12399 0.0
C1901 C 0.34513 0.04514 0.12465 0.0
N1902 N 0.37305 0.05494 0.12612 0.0
H1903 H 0.44778 0.01308 0.11232 0.0
H1904 H 0.45852 0.02572 0.14599 0.0
H1905 H 0.30999 0.00816 0.12242 0.0
H1906 H 0.32141 0.06438 0.12382 0.0
N1907 N 0.20720 0.96896 0.62577 0.0
C1908 C 0.18627 0.98882 0.62463 0.0
O1909 O 0.19395 0.01392 0.62268 0.0
C1910 C 0.15718 0.98091 0.62566 0.0
C1911 C 0.14980 0.95507 0.62762 0.0
C1912 C 0.12387 0.94648 0.62857 0.0
C1913 C 0.10174 0.96614 0.62744 0.0
C1914 C 0.10841 0.99290 0.62543 0.0
N1915 N 0.13676 0.00124 0.62446 0.0
H1916 H 0.20807 0.95421 0.61018 0.0
H1917 H 0.22156 0.96909 0.64200 0.0
H1918 H 0.07145 0.95783 0.62843 0.0
H1919 H 0.08574 0.01331 0.62425 0.0
loop_
_geom_bond_atom_site_label_1
_geom_bond_atom_site_label_2
_geom_bond_distance
_geom_bond_site_symmetry_2
_ccdc_geom_bond_type
Co0 O3 2.002 . S
Co0 O6 2.105 . S
Co0 O7 2.180 . S
Co0 O9 2.021 . S
O1 Co2 2.021 . S
O1 C8 1.276 . A
Co2 O10 2.002 . S
Co2 O12 2.105 . S
Co2 O13 2.180 . S
O3 C8 1.251 . A
C4 O12 1.247 . A
C4 O13 1.240 . A
C5 O6 1.246 . A
C5 O7 1.240 . A
O9 C11 1.276 . A
O10 C11 1.251 . A
Co14 O17 2.002 . S
Co14 O20 2.105 . S
Co14 O21 2.180 . S
Co14 O23 2.021 . S
O15 Co16 2.021 . S
O15 C22 1.276 . A
Co16 O24 2.002 . S
Co16 O26 2.105 . S
Co16 O27 2.180 . S
O17 C22 1.251 . A
C18 O26 1.247 . A
C18 O27 1.240 . A
C19 O20 1.246 . A
C19 O21 1.240 . A
O23 C25 1.276 . A
O24 C25 1.251 . A
Co28 O31 2.002 . S
Co28 O34 2.105 . S
Co28 O35 2.180 . S
Co28 O37 2.021 . S
O29 Co30 2.021 . S
O29 C36 1.276 . A
Co30 O38 2.002 . S
Co30 O40 2.105 . S
Co30 O41 2.180 . S
O31 C36 1.251 . A
C32 O40 1.247 . A
C32 O41 1.240 . A
C33 O34 1.246 . A
C33 O35 1.240 . A
O37 C39 1.276 . A
O38 C39 1.251 . A
Co42 O45 2.002 . S
Co42 O48 2.105 . S
Co42 O49 2.180 . S
Co42 O51 2.021 . S
O43 Co44 2.021 . S
O43 C50 1.276 . A
Co44 O52 2.002 . S
Co44 O54 2.105 . S
Co44 O55 2.180 . S
O45 C50 1.251 . A
C46 O54 1.247 . A
C46 O55 1.240 . A
C47 O48 1.246 . A
C47 O49 1.240 . A
O51 C53 1.276 . A
O52 C53 1.251 . A
Co56 O59 2.002 . S
Co56 O62 2.105 . S
Co56 O63 2.180 . S
Co56 O65 2.021 . S
O57 Co58 2.021 . S
O57 C64 1.276 . A
Co58 O66 2.002 . S
Co58 O68 2.105 . S
Co58 O69 2.180 . S
O59 C64 1.251 . A
C60 O68 1.247 . A
C60 O69 1.240 . A
C61 O62 1.246 . A
C61 O63 1.240 . A
O65 C67 1.276 . A
O66 C67 1.251 . A
Co70 O73 2.002 . S
Co70 O76 2.105 . S
Co70 O77 2.180 . S
Co70 O79 2.021 . S
O71 Co72 2.021 . S
O71 C78 1.276 . A
Co72 O80 2.002 . S
Co72 O82 2.105 . S
Co72 O83 2.180 . S
O73 C78 1.251 . A
C74 O82 1.247 . A
C74 O83 1.240 . A
C75 O76 1.246 . A
C75 O77 1.240 . A
O79 C81 1.276 . A
O80 C81 1.251 . A
Co84 O87 2.002 . S
Co84 O90 2.105 . S
Co84 O91 2.180 . S
Co84 O93 2.021 . S
O85 Co86 2.021 . S
O85 C92 1.276 . A
Co86 O94 2.002 . S
Co86 O96 2.105 . S
Co86 O97 2.180 . S
O87 C92 1.251 . A
C88 O96 1.247 . A
C88 O97 1.240 . A
C89 O90 1.246 . A
C89 O91 1.240 . A
O93 C95 1.276 . A
O94 C95 1.251 . A
Co98 O101 2.002 . S
Co98 O104 2.105 . S
Co98 O105 2.180 . S
Co98 O107 2.021 . S
O99 Co100 2.021 . S
O99 C106 1.276 . A
Co100 O108 2.002 . S
Co100 O110 2.105 . S
Co100 O111 2.180 . S
O101 C106 1.251 . A
C102 O110 1.247 . A
C102 O111 1.240 . A
C103 O104 1.246 . A
C103 O105 1.240 . A
O107 C109 1.276 . A
O108 C109 1.251 . A
Co112 O115 2.002 . S
Co112 O118 2.105 . S
Co112 O119 2.180 . S
Co112 O121 2.021 . S
O113 Co114 2.021 . S
O113 C120 1.276 . A
Co114 O122 2.002 . S
Co114 O124 2.105 . S
Co114 O125 2.180 . S
O115 C120 1.251 . A
C116 O124 1.247 . A
C116 O125 1.240 . A
C117 O118 1.246 . A
C117 O119 1.240 . A
O121 C123 1.276 . A
O122 C123 1.251 . A
Co126 O129 2.002 . S
Co126 O132 2.105 . S
Co126 O133 2.180 . S
Co126 O135 2.021 . S
O127 Co128 2.021 . S
O127 C134 1.276 . A
Co128 O136 2.002 . S
Co128 O138 2.105 . S
Co128 O139 2.180 . S
O129 C134 1.251 . A
C130 O138 1.247 . A
C130 O139 1.240 . A
C131 O132 1.246 . A
C131 O133 1.240 . A
O135 C137 1.276 . A
O136 C137 1.251 . A
Co140 O143 2.002 . S
Co140 O146 2.105 . S
Co140 O147 2.180 . S
Co140 O149 2.021 . S
O141 Co142 2.021 . S
O141 C148 1.276 . A
Co142 O150 2.002 . S
Co142 O152 2.105 . S
Co142 O153 2.180 . S
O143 C148 1.251 . A
C144 O152 1.247 . A
C144 O153 1.240 . A
C145 O146 1.246 . A
C145 O147 1.240 . A
O149 C151 1.276 . A
O150 C151 1.251 . A
Co154 O157 2.002 . S
Co154 O160 2.105 . S
Co154 O161 2.180 . S
Co154 O163 2.021 . S
O155 Co156 2.021 . S
O155 C162 1.276 . A
Co156 O164 2.002 . S
Co156 O166 2.105 . S
Co156 O167 2.180 . S
O157 C162 1.251 . A
C158 O166 1.247 . A
C158 O167 1.240 . A
C159 O160 1.246 . A
C159 O161 1.240 . A
O163 C165 1.276 . A
O164 C165 1.251 . A
Co168 O171 2.002 . S
Co168 O174 2.105 . S
Co168 O175 2.180 . S
Co168 O177 2.021 . S
O169 Co170 2.021 . S
O169 C176 1.276 . A
Co170 O178 2.002 . S
Co170 O180 2.105 . S
Co170 O181 2.180 . S
O171 C176 1.251 . A
C172 O180 1.247 . A
C172 O181 1.240 . A
C173 O174 1.246 . A
C173 O175 1.240 . A
O177 C179 1.276 . A
O178 C179 1.251 . A
Co182 O185 2.002 . S
Co182 O188 2.105 . S
Co182 O189 2.180 . S
Co182 O191 2.021 . S
O183 Co184 2.021 . S
O183 C190 1.276 . A
Co184 O192 2.002 . S
Co184 O194 2.105 . S
Co184 O195 2.180 . S
O185 C190 1.251 . A
C186 O194 1.247 . A
C186 O195 1.240 . A
C187 O188 1.246 . A
C187 O189 1.240 . A
O191 C193 1.276 . A
O192 C193 1.251 . A
Co196 O199 2.002 . S
Co196 O202 2.105 . S
Co196 O203 2.180 . S
Co196 O205 2.021 . S
O197 Co198 2.021 . S
O197 C204 1.276 . A
Co198 O206 2.002 . S
Co198 O208 2.105 . S
Co198 O209 2.180 . S
O199 C204 1.251 . A
C200 O208 1.247 . A
C200 O209 1.240 . A
C201 O202 1.246 . A
C201 O203 1.240 . A
O205 C207 1.276 . A
O206 C207 1.251 . A
Co210 O213 2.002 . S
Co210 O216 2.105 . S
Co210 O217 2.180 . S
Co210 O219 2.021 . S
O211 Co212 2.021 . S
O211 C218 1.276 . A
Co212 O220 2.002 . S
Co212 O222 2.105 . S
Co212 O223 2.180 . S
O213 C218 1.251 . A
C214 O222 1.247 . A
C214 O223 1.240 . A
C215 O216 1.246 . A
C215 O217 1.240 . A
O219 C221 1.276 . A
O220 C221 1.251 . A
Co224 O227 2.002 . S
Co224 O230 2.105 . S
Co224 O231 2.180 . S
Co224 O233 2.021 . S
O225 Co226 2.021 . S
O225 C232 1.276 . A
Co226 O234 2.002 . S
Co226 O236 2.105 . S
Co226 O237 2.180 . S
O227 C232 1.251 . A
C228 O236 1.247 . A
C228 O237 1.240 . A
C229 O230 1.246 . A
C229 O231 1.240 . A
O233 C235 1.276 . A
O234 C235 1.251 . A
Co238 O241 2.002 . S
Co238 O244 2.105 . S
Co238 O245 2.180 . S
Co238 O247 2.021 . S
O239 Co240 2.021 . S
O239 C246 1.276 . A
Co240 O248 2.002 . S
Co240 O250 2.105 . S
Co240 O251 2.180 . S
O241 C246 1.251 . A
C242 O250 1.247 . A
C242 O251 1.240 . A
C243 O244 1.246 . A
C243 O245 1.240 . A
O247 C249 1.276 . A
O248 C249 1.251 . A
Co252 O255 2.002 . S
Co252 O258 2.105 . S
Co252 O259 2.180 . S
Co252 O261 2.021 . S
O253 Co254 2.021 . S
O253 C260 1.276 . A
Co254 O262 2.002 . S
Co254 O264 2.105 . S
Co254 O265 2.180 . S
O255 C260 1.251 . A
C256 O264 1.247 . A
C256 O265 1.240 . A
C257 O258 1.246 . A
C257 O259 1.240 . A
O261 C263 1.276 . A
O262 C263 1.251 . A
Co266 O269 2.002 . S
Co266 O272 2.105 . S
Co266 O273 2.180 . S
Co266 O275 2.021 . S
O267 Co268 2.021 . S
O267 C274 1.276 . A
Co268 O276 2.002 . S
Co268 O278 2.105 . S
Co268 O279 2.180 . S
O269 C274 1.251 . A
C270 O278 1.247 . A
C270 O279 1.240 . A
C271 O272 1.246 . A
C271 O273 1.240 . A
O275 C277 1.276 . A
O276 C277 1.251 . A
Co280 O283 2.002 . S
Co280 O286 2.105 . S
Co280 O287 2.180 . S
Co280 O289 2.021 . S
O281 Co282 2.021 . S
O281 C288 1.276 . A
Co282 O290 2.002 . S
Co282 O292 2.105 . S
Co282 O293 2.180 . S
O283 C288 1.251 . A
C284 O292 1.247 . A
C284 O293 1.240 . A
C285 O286 1.246 . A
C285 O287 1.240 . A
O289 C291 1.276 . A
O290 C291 1.251 . A
Co294 O297 2.002 . S
Co294 O300 2.105 . S
Co294 O301 2.180 . S
Co294 O303 2.021 . S
O295 Co296 2.021 . S
O295 C302 1.276 . A
Co296 O304 2.002 . S
Co296 O306 2.105 . S
Co296 O307 2.180 . S
O297 C302 1.251 . A
C298 O306 1.247 . A
C298 O307 1.240 . A
C299 O300 1.246 . A
C299 O301 1.240 . A
O303 C305 1.276 . A
O304 C305 1.251 . A
Co308 O311 2.002 . S
Co308 O314 2.105 . S
Co308 O315 2.180 . S
Co308 O317 2.021 . S
O309 Co310 2.021 . S
O309 C316 1.276 . A
Co310 O318 2.002 . S
Co310 O320 2.105 . S
Co310 O321 2.180 . S
O311 C316 1.251 . A
C312 O320 1.247 . A
C312 O321 1.240 . A
C313 O314 1.246 . A
C313 O315 1.240 . A
O317 C319 1.276 . A
O318 C319 1.251 . A
Co322 O325 2.002 . S
Co322 O328 2.105 . S
Co322 O329 2.180 . S
Co322 O331 2.021 . S
O323 Co324 2.021 . S
O323 C330 1.276 . A
Co324 O332 2.002 . S
Co324 O334 2.105 . S
Co324 O335 2.180 . S
O325 C330 1.251 . A
C326 O334 1.247 . A
C326 O335 1.240 . A
C327 O328 1.246 . A
C327 O329 1.240 . A
O331 C333 1.276 . A
O332 C333 1.251 . A
Co336 O339 2.002 . S
Co336 O342 2.105 . S
Co336 O343 2.180 . S
Co336 O345 2.021 . S
O337 Co338 2.021 . S
O337 C344 1.276 . A
Co338 O346 2.002 . S
Co338 O348 2.105 . S
Co338 O349 2.180 . S
O339 C344 1.251 . A
C340 O348 1.247 . A
C340 O349 1.240 . A
C341 O342 1.246 . A
C341 O343 1.240 . A
O345 C347 1.276 . A
O346 C347 1.251 . A
Co350 O353 2.002 . S
Co350 O356 2.105 . S
Co350 O357 2.180 . S
Co350 O359 2.021 . S
O351 Co352 2.021 . S
O351 C358 1.276 . A
Co352 O360 2.002 . S
Co352 O362 2.105 . S
Co352 O363 2.180 . S
O353 C358 1.251 . A
C354 O362 1.247 . A
C354 O363 1.240 . A
C355 O356 1.246 . A
C355 O357 1.240 . A
O359 C361 1.276 . A
O360 C361 1.251 . A
Co364 O367 2.002 . S
Co364 O370 2.105 . S
Co364 O371 2.180 . S
Co364 O373 2.021 . S
O365 Co366 2.021 . S
O365 C372 1.276 . A
Co366 O374 2.002 . S
Co366 O376 2.105 . S
Co366 O377 2.180 . S
O367 C372 1.251 . A
C368 O376 1.247 . A
C368 O377 1.240 . A
C369 O370 1.246 . A
C369 O371 1.240 . A
O373 C375 1.276 . A
O374 C375 1.251 . A
Co378 O381 2.002 . S
Co378 O384 2.105 . S
Co378 O385 2.180 . S
Co378 O387 2.021 . S
O379 Co380 2.021 . S
O379 C386 1.276 . A
Co380 O388 2.002 . S
Co380 O390 2.105 . S
Co380 O391 2.180 . S
O381 C386 1.251 . A
C382 O390 1.247 . A
C382 O391 1.240 . A
C383 O384 1.246 . A
C383 O385 1.240 . A
O387 C389 1.276 . A
O388 C389 1.251 . A
Co392 O395 2.002 . S
Co392 O398 2.105 . S
Co392 O399 2.180 . S
Co392 O401 2.021 . S
O393 Co394 2.021 . S
O393 C400 1.276 . A
Co394 O402 2.002 . S
Co394 O404 2.105 . S
Co394 O405 2.180 . S
O395 C400 1.251 . A
C396 O404 1.247 . A
C396 O405 1.240 . A
C397 O398 1.246 . A
C397 O399 1.240 . A
O401 C403 1.276 . A
O402 C403 1.251 . A
Co406 O409 2.002 . S
Co406 O412 2.105 . S
Co406 O413 2.180 . S
Co406 O415 2.021 . S
O407 Co408 2.021 . S
O407 C414 1.276 . A
Co408 O416 2.002 . S
Co408 O418 2.105 . S
Co408 O419 2.180 . S
O409 C414 1.251 . A
C410 O418 1.247 . A
C410 O419 1.240 . A
C411 O412 1.246 . A
C411 O413 1.240 . A
O415 C417 1.276 . A
O416 C417 1.251 . A
Co420 O423 2.002 . S
Co420 O426 2.105 . S
Co420 O427 2.180 . S
Co420 O429 2.021 . S
O421 Co422 2.021 . S
O421 C428 1.276 . A
Co422 O430 2.002 . S
Co422 O432 2.105 . S
Co422 O433 2.180 . S
O423 C428 1.251 . A
C424 O432 1.247 . A
C424 O433 1.240 . A
C425 O426 1.246 . A
C425 O427 1.240 . A
O429 C431 1.276 . A
O430 C431 1.251 . A
Co434 O437 2.002 . S
Co434 O440 2.105 . S
Co434 O441 2.180 . S
Co434 O443 2.021 . S
O435 Co436 2.021 . S
O435 C442 1.276 . A
Co436 O444 2.002 . S
Co436 O446 2.105 . S
Co436 O447 2.180 . S
O437 C442 1.251 . A
C438 O446 1.247 . A
C438 O447 1.240 . A
C439 O440 1.246 . A
C439 O441 1.240 . A
O443 C445 1.276 . A
O444 C445 1.251 . A
Co448 O451 2.002 . S
Co448 O454 2.105 . S
Co448 O455 2.180 . S
Co448 O457 2.021 . S
O449 Co450 2.021 . S
O449 C456 1.276 . A
Co450 O458 2.002 . S
Co450 O460 2.105 . S
Co450 O461 2.180 . S
O451 C456 1.251 . A
C452 O460 1.247 . A
C452 O461 1.240 . A
C453 O454 1.246 . A
C453 O455 1.240 . A
O457 C459 1.276 . A
O458 C459 1.251 . A
Co462 O465 2.002 . S
Co462 O468 2.105 . S
Co462 O469 2.180 . S
Co462 O471 2.021 . S
O463 Co464 2.021 . S
O463 C470 1.276 . A
Co464 O472 2.002 . S
Co464 O474 2.105 . S
Co464 O475 2.180 . S
O465 C470 1.251 . A
C466 O474 1.247 . A
C466 O475 1.240 . A
C467 O468 1.246 . A
C467 O469 1.240 . A
O471 C473 1.276 . A
O472 C473 1.251 . A
Co476 O479 2.002 . S
Co476 O482 2.105 . S
Co476 O483 2.180 . S
Co476 O485 2.021 . S
O477 Co478 2.021 . S
O477 C484 1.276 . A
Co478 O486 2.002 . S
Co478 O488 2.105 . S
Co478 O489 2.180 . S
O479 C484 1.251 . A
C480 O488 1.247 . A
C480 O489 1.240 . A
C481 O482 1.246 . A
C481 O483 1.240 . A
O485 C487 1.276 . A
O486 C487 1.251 . A
Co490 O493 2.002 . S
Co490 O496 2.105 . S
Co490 O497 2.180 . S
Co490 O499 2.021 . S
O491 Co492 2.021 . S
O491 C498 1.276 . A
Co492 O500 2.002 . S
Co492 O502 2.105 . S
Co492 O503 2.180 . S
O493 C498 1.251 . A
C494 O502 1.247 . A
C494 O503 1.240 . A
C495 O496 1.246 . A
C495 O497 1.240 . A
O499 C501 1.276 . A
O500 C501 1.251 . A
Co504 O507 2.002 . S
Co504 O510 2.105 . S
Co504 O511 2.180 . S
Co504 O513 2.021 . S
O505 Co506 2.021 . S
O505 C512 1.276 . A
Co506 O514 2.002 . S
Co506 O516 2.105 . S
Co506 O517 2.180 . S
O507 C512 1.251 . A
C508 O516 1.247 . A
C508 O517 1.240 . A
C509 O510 1.246 . A
C509 O511 1.240 . A
O513 C515 1.276 . A
O514 C515 1.251 . A
Co518 O521 2.002 . S
Co518 O524 2.105 . S
Co518 O525 2.180 . S
Co518 O527 2.021 . S
O519 Co520 2.021 . S
O519 C526 1.276 . A
Co520 O528 2.002 . S
Co520 O530 2.105 . S
Co520 O531 2.180 . S
O521 C526 1.251 . A
C522 O530 1.247 . A
C522 O531 1.240 . A
C523 O524 1.246 . A
C523 O525 1.240 . A
O527 C529 1.276 . A
O528 C529 1.251 . A
Co532 O535 2.002 . S
Co532 O538 2.105 . S
Co532 O539 2.180 . S
Co532 O541 2.021 . S
O533 Co534 2.021 . S
O533 C540 1.276 . A
Co534 O542 2.002 . S
Co534 O544 2.105 . S
Co534 O545 2.180 . S
O535 C540 1.251 . A
C536 O544 1.247 . A
C536 O545 1.240 . A
C537 O538 1.246 . A
C537 O539 1.240 . A
O541 C543 1.276 . A
O542 C543 1.251 . A
Co546 O549 2.002 . S
Co546 O552 2.105 . S
Co546 O553 2.180 . S
Co546 O555 2.021 . S
O547 Co548 2.021 . S
O547 C554 1.276 . A
Co548 O556 2.002 . S
Co548 O558 2.105 . S
Co548 O559 2.180 . S
O549 C554 1.251 . A
C550 O558 1.247 . A
C550 O559 1.240 . A
C551 O552 1.246 . A
C551 O553 1.240 . A
O555 C557 1.276 . A
O556 C557 1.251 . A
Co560 O563 2.002 . S
Co560 O566 2.105 . S
Co560 O567 2.180 . S
Co560 O569 2.021 . S
O561 Co562 2.021 . S
O561 C568 1.276 . A
Co562 O570 2.002 . S
Co562 O572 2.105 . S
Co562 O573 2.180 . S
O563 C568 1.251 . A
C564 O572 1.247 . A
C564 O573 1.240 . A
C565 O566 1.246 . A
C565 O567 1.240 . A
O569 C571 1.276 . A
O570 C571 1.251 . A
Co574 O577 2.002 . S
Co574 O580 2.105 . S
Co574 O581 2.180 . S
Co574 O583 2.021 . S
O575 Co576 2.021 . S
O575 C582 1.276 . A
Co576 O584 2.002 . S
Co576 O586 2.105 . S
Co576 O587 2.180 . S
O577 C582 1.251 . A
C578 O586 1.247 . A
C578 O587 1.240 . A
C579 O580 1.246 . A
C579 O581 1.240 . A
O583 C585 1.276 . A
O584 C585 1.251 . A
Co588 O591 2.002 . S
Co588 O594 2.105 . S
Co588 O595 2.180 . S
Co588 O597 2.021 . S
O589 Co590 2.021 . S
O589 C596 1.276 . A
Co590 O598 2.002 . S
Co590 O600 2.105 . S
Co590 O601 2.180 . S
O591 C596 1.251 . A
C592 O600 1.247 . A
C592 O601 1.240 . A
C593 O594 1.246 . A
C593 O595 1.240 . A
O597 C599 1.276 . A
O598 C599 1.251 . A
Co602 O605 2.002 . S
Co602 O608 2.105 . S
Co602 O609 2.180 . S
Co602 O611 2.021 . S
O603 Co604 2.021 . S
O603 C610 1.276 . A
Co604 O612 2.002 . S
Co604 O614 2.105 . S
Co604 O615 2.180 . S
O605 C610 1.251 . A
C606 O614 1.247 . A
C606 O615 1.240 . A
C607 O608 1.246 . A
C607 O609 1.240 . A
O611 C613 1.276 . A
O612 C613 1.251 . A
Co616 O619 2.002 . S
Co616 O622 2.105 . S
Co616 O623 2.180 . S
Co616 O625 2.021 . S
O617 Co618 2.021 . S
O617 C624 1.276 . A
Co618 O626 2.002 . S
Co618 O628 2.105 . S
Co618 O629 2.180 . S
O619 C624 1.251 . A
C620 O628 1.247 . A
C620 O629 1.240 . A
C621 O622 1.246 . A
C621 O623 1.240 . A
O625 C627 1.276 . A
O626 C627 1.251 . A
Co630 O633 2.002 . S
Co630 O636 2.105 . S
Co630 O637 2.180 . S
Co630 O639 2.021 . S
O631 Co632 2.021 . S
O631 C638 1.276 . A
Co632 O640 2.002 . S
Co632 O642 2.105 . S
Co632 O643 2.180 . S
O633 C638 1.251 . A
C634 O642 1.247 . A
C634 O643 1.240 . A
C635 O636 1.246 . A
C635 O637 1.240 . A
O639 C641 1.276 . A
O640 C641 1.251 . A
Co644 O647 2.002 . S
Co644 O650 2.105 . S
Co644 O651 2.180 . S
Co644 O653 2.021 . S
O645 Co646 2.021 . S
O645 C652 1.276 . A
Co646 O654 2.002 . S
Co646 O656 2.105 . S
Co646 O657 2.180 . S
O647 C652 1.251 . A
C648 O656 1.247 . A
C648 O657 1.240 . A
C649 O650 1.246 . A
C649 O651 1.240 . A
O653 C655 1.276 . A
O654 C655 1.251 . A
Co658 O661 2.002 . S
Co658 O664 2.105 . S
Co658 O665 2.180 . S
Co658 O667 2.021 . S
O659 Co660 2.021 . S
O659 C666 1.276 . A
Co660 O668 2.002 . S
Co660 O670 2.105 . S
Co660 O671 2.180 . S
O661 C666 1.251 . A
C662 O670 1.247 . A
C662 O671 1.240 . A
C663 O664 1.246 . A
C663 O665 1.240 . A
O667 C669 1.276 . A
O668 C669 1.251 . A
N672 C673 1.435 . S
C673 O674 1.246 1_556 D
C673 C675 1.450 . S
C675 C676 1.302 . D
C676 C677 1.304 . D
C677 C678 1.456 . S
C678 C679 1.338 . D
C679 N680 1.411 1_556 S
N680 C675 1.418 1_554 S
N672 H681 1.042 . S
N672 H682 1.041 . S
C678 H683 1.500 . S
C679 H684 1.500 1_556 S
N685 C686 1.420 . S
C686 O687 1.271 . D
C686 C688 1.440 . S
C688 C689 1.302 . D
C689 C690 1.304 . D
C690 C691 1.456 . S
C691 C692 1.338 . D
C692 N693 1.411 . S
N693 C688 1.418 . S
N685 H694 1.042 . S
N685 H695 1.041 . S
C691 H696 1.500 . S
C692 H697 1.500 . S
N698 C699 1.420 . S
C699 O700 1.271 . D
C699 C701 1.440 . S
C701 C702 1.302 . D
C702 C703 1.304 . D
C703 C704 1.456 . S
C704 C705 1.338 . D
C705 N706 1.411 . S
N706 C701 1.418 . S
N698 H707 1.042 . S
N698 H708 1.041 . S
C704 H709 1.500 . S
C705 H710 1.500 . S
N711 C712 1.420 . S
C712 O713 1.271 . D
C712 C714 1.440 . S
C714 C715 1.302 . D
C715 C716 1.304 . D
C716 C717 1.456 . S
C717 C718 1.338 . D
C718 N719 1.411 . S
N719 C714 1.418 . S
N711 H720 1.042 . S
N711 H721 1.041 . S
C717 H722 1.500 . S
C718 H723 1.500 . S
N724 C725 1.420 1_554 S
C725 O726 1.271 . D
C725 C727 1.440 1_556 S
C727 C728 1.302 . D
C728 C729 1.304 . D
C729 C730 1.456 . S
C730 C731 1.338 . D
C731 N732 1.411 1_554 S
N732 C727 1.418 1_556 S
N724 H733 1.042 . S
N724 H734 1.041 . S
C730 H735 1.500 . S
C731 H736 1.500 1_554 S
N737 C738 1.420 . S
C738 O739 1.271 . D
C738 C740 1.440 . S
C740 C741 1.302 . D
C741 C742 1.304 . D
C742 C743 1.456 . S
C743 C744 1.338 . D
C744 N745 1.411 . S
N745 C740 1.418 . S
N737 H746 1.042 . S
N737 H747 1.041 . S
C743 H748 1.500 . S
C744 H749 1.500 . S
N750 C751 1.420 . S
C751 O752 1.271 . D
C751 C753 1.440 . S
C753 C754 1.302 . D
C754 C755 1.304 . D
C755 C756 1.456 . S
C756 C757 1.338 . D
C757 N758 1.411 . S
N758 C753 1.418 . S
N750 H759 1.042 . S
N750 H760 1.041 . S
C756 H761 1.500 . S
C757 H762 1.500 . S
N763 C764 1.420 . S
C764 O765 1.271 . D
C764 C766 1.440 . S
C766 C767 1.302 . D
C767 C768 1.304 . D
C768 C769 1.456 . S
C769 C770 1.338 . D
C770 N771 1.411 . S
N771 C766 1.418 . S
N763 H772 1.042 . S
N763 H773 1.041 . S
C769 H774 1.500 . S
C770 H775 1.500 . S
N776 C777 1.436 . S
C777 O778 1.241 1_554 D
C777 C779 1.453 . S
C779 C780 1.302 . D
C780 C781 1.304 . D
C781 C782 1.456 . S
C782 C783 1.338 . D
C783 N784 1.411 1_554 S
N784 C779 1.418 1_556 S
N776 H785 1.042 . S
N776 H786 1.041 . S
C782 H787 1.500 . S
C783 H788 1.500 1_554 S
N789 C790 1.420 . S
C790 O791 1.271 . D
C790 C792 1.440 . S
C792 C793 1.302 . D
C793 C794 1.304 . D
C794 C795 1.456 . S
C795 C796 1.338 . D
C796 N797 1.411 . S
N797 C792 1.418 . S
N789 H798 1.042 . S
N789 H799 1.041 . S
C795 H800 1.500 . S
C796 H801 1.500 . S
N802 C803 1.420 . S
C803 O804 1.271 . D
C803 C805 1.440 . S
C805 C806 1.302 . D
C806 C807 1.304 . D
C807 C808 1.456 . S
C808 C809 1.338 . D
C809 N810 1.411 . S
N810 C805 1.418 . S
N802 H811 1.042 . S
N802 H812 1.041 . S
C808 H813 1.500 . S
C809 H814 1.500 . S
N815 C816 1.420 . S
C816 O817 1.271 . D
C816 C818 1.440 . S
C818 C819 1.302 . D
C819 C820 1.304 . D
C820 C821 1.456 . S
C821 C822 1.338 . D
C822 N823 1.411 . S
N823 C818 1.418 . S
N815 H824 1.042 . S
N815 H825 1.041 . S
C821 H826 1.500 . S
C822 H827 1.500 . S
N828 C829 1.420 1_655 S
C829 O830 1.271 . D
C829 C831 1.440 1_455 S
C831 C832 1.302 . D
C832 C833 1.304 . D
C833 C834 1.456 . S
C834 C835 1.338 . D
C835 N836 1.401 1_655 S
N836 C831 1.411 1_455 S
N828 H837 1.042 . S
N828 H838 1.041 . S
C834 H839 1.500 . S
C835 H840 1.500 . S
N841 C842 1.420 . S
C842 O843 1.271 . D
C842 C844 1.440 . S
C844 C845 1.302 . D
C845 C846 1.304 . D
C846 C847 1.456 . S
C847 C848 1.338 . D
C848 N849 1.411 . S
N849 C844 1.418 . S
N841 H850 1.042 . S
N841 H851 1.041 . S
C847 H852 1.500 . S
C848 H853 1.500 . S
N854 C855 1.420 . S
C855 O856 1.271 . D
C855 C857 1.440 . S
C857 C858 1.302 . D
C858 C859 1.304 . D
C859 C860 1.456 . S
C860 C861 1.338 . D
C861 N862 1.411 . S
N862 C857 1.418 . S
N854 H863 1.042 . S
N854 H864 1.041 . S
C860 H865 1.500 . S
C861 H866 1.500 . S
N867 C868 1.420 . S
C868 O869 1.271 . D
C868 C870 1.440 . S
C870 C871 1.302 . D
C871 C872 1.304 . D
C872 C873 1.456 . S
C873 C874 1.338 . D
C874 N875 1.411 . S
N875 C870 1.418 . S
N867 H876 1.042 . S
N867 H877 1.041 . S
C873 H878 1.500 . S
C874 H879 1.500 . S
N880 C881 1.420 . S
C881 O882 1.271 . D
C881 C883 1.440 . S
C883 C884 1.302 . D
C884 C885 1.304 . D
C885 C886 1.456 . S
C886 C887 1.338 . D
C887 N888 1.411 . S
N888 C883 1.418 . S
N880 H889 1.042 . S
N880 H890 1.041 . S
C886 H891 1.500 . S
C887 H892 1.500 . S
N893 C894 1.420 . S
C894 O895 1.271 . D
C894 C896 1.440 . S
C896 C897 1.302 . D
C897 C898 1.304 . D
C898 C899 1.456 . S
C899 C900 1.338 . D
C900 N901 1.411 . S
N901 C896 1.418 . S
N893 H902 1.042 . S
N893 H903 1.041 . S
C899 H904 1.500 . S
C900 H905 1.500 . S
N906 C907 1.420 . S
C907 O908 1.271 . D
C907 C909 1.440 . S
C909 C910 1.295 1_455 D
C910 C911 1.308 . D
C911 C912 1.456 . S
C912 C913 1.338 1_655 D
C913 N914 1.411 . S
N914 C909 1.418 . S
N906 H915 1.042 . S
N906 H916 1.041 . S
C912 H917 1.500 . S
C913 H918 1.500 . S
N919 C920 1.420 . S
C920 O921 1.271 . D
C920 C922 1.440 . S
C922 C923 1.302 . D
C923 C924 1.304 . D
C924 C925 1.456 . S
C925 C926 1.338 . D
C926 N927 1.411 . S
N927 C922 1.418 . S
N919 H928 1.042 . S
N919 H929 1.041 . S
C925 H930 1.500 . S
C926 H931 1.500 . S
N932 C933 1.420 . S
C933 O934 1.271 . D
C933 C935 1.440 . S
C935 C936 1.302 . D
C936 C937 1.304 . D
C937 C938 1.456 . S
C938 C939 1.338 . D
C939 N940 1.411 . S
N940 C935 1.418 . S
N932 H941 1.042 . S
N932 H942 1.041 . S
C938 H943 1.500 . S
C939 H944 1.500 . S
N945 C946 1.420 . S
C946 O947 1.271 . D
C946 C948 1.440 . S
C948 C949 1.302 . D
C949 C950 1.304 . D
C950 C951 1.456 . S
C951 C952 1.338 . D
C952 N953 1.411 . S
N953 C948 1.418 . S
N945 H954 1.042 . S
N945 H955 1.041 . S
C951 H956 1.500 . S
C952 H957 1.500 . S
N958 C959 1.420 . S
C959 O960 1.271 . D
C959 C961 1.440 . S
C961 C962 1.302 . D
C962 C963 1.304 . D
C963 C964 1.456 . S
C964 C965 1.338 . D
C965 N966 1.411 . S
N966 C961 1.418 . S
N958 H967 1.042 . S
N958 H968 1.041 . S
C964 H969 1.500 . S
C965 H970 1.500 . S
N971 C972 1.420 . S
C972 O973 1.271 . D
C972 C974 1.430 1_655 S
C974 C975 1.320 . D
C975 C976 1.304 . D
C976 C977 1.456 . S
C977 C978 1.338 . D
C978 N979 1.411 1_455 S
N979 C974 1.410 1_655 S
N971 H980 1.042 1_655 S
N971 H981 1.041 . S
C977 H982 1.500 . S
C978 H983 1.500 1_455 S
N984 C985 1.420 . S
C985 O986 1.271 . D
C985 C987 1.440 . S
C987 C988 1.302 . D
C988 C989 1.304 . D
C989 C990 1.456 . S
C990 C991 1.338 . D
C991 N992 1.411 . S
N992 C987 1.418 . S
N984 H993 1.042 . S
N984 H994 1.041 . S
C990 H995 1.500 . S
C991 H996 1.500 . S
N997 C998 1.420 . S
C998 O999 1.271 . D
C998 C1000 1.440 . S
C1000 C1001 1.302 . D
C1001 C1002 1.304 . D
C1002 C1003 1.456 . S
C1003 C1004 1.338 . D
C1004 N1005 1.411 . S
N1005 C1000 1.418 . S
N997 H1006 1.042 . S
N997 H1007 1.041 . S
C1003 H1008 1.500 . S
C1004 H1009 1.500 . S
N1010 C1011 1.420 . S
C1011 O1012 1.271 . D
C1011 C1013 1.440 . S
C1013 C1014 1.302 . D
C1014 C1015 1.304 . D
C1015 C1016 1.456 . S
C1016 C1017 1.338 . D
C1017 N1018 1.411 . S
N1018 C1013 1.418 . S
N1010 H1019 1.042 . S
N1010 H1020 1.041 . S
C1016 H1021 1.500 . S
C1017 H1022 1.500 . S
N1023 C1024 1.420 . S
C1024 O1025 1.271 . D
C1024 C1026 1.440 . S
C1026 C1027 1.302 . D
C1027 C1028 1.304 1_554 D
C1028 C1029 1.456 1_556 S
C1029 C1030 1.338 . D
C1030 N1031 1.411 . S
N1031 C1026 1.418 . S
N1023 H1032 1.042 . S
N1023 H1033 1.041 . S
C1029 H1034 1.500 . S
C1030 H1035 1.500 . S
N1036 C1037 1.420 . S
C1037 O1038 1.271 . D
C1037 C1039 1.440 . S
C1039 C1040 1.302 . D
C1040 C1041 1.304 . D
C1041 C1042 1.456 . S
C1042 C1043 1.338 . D
C1043 N1044 1.411 . S
N1044 C1039 1.418 . S
N1036 H1045 1.042 . S
N1036 H1046 1.041 . S
C1042 H1047 1.500 . S
C1043 H1048 1.500 . S
N1049 C1050 1.420 . S
C1050 O1051 1.271 . D
C1050 C1052 1.440 . S
C1052 C1053 1.302 . D
C1053 C1054 1.304 . D
C1054 C1055 1.456 . S
C1055 C1056 1.338 . D
C1056 N1057 1.411 . S
N1057 C1052 1.418 . S
N1049 H1058 1.042 . S
N1049 H1059 1.041 . S
C1055 H1060 1.500 . S
C1056 H1061 1.500 . S
N1062 C1063 1.420 . S
C1063 O1064 1.271 . D
C1063 C1065 1.440 . S
C1065 C1066 1.302 . D
C1066 C1067 1.304 . D
C1067 C1068 1.456 . S
C1068 C1069 1.338 . D
C1069 N1070 1.411 . S
N1070 C1065 1.418 . S
N1062 H1071 1.042 . S
N1062 H1072 1.041 . S
C1068 H1073 1.500 . S
C1069 H1074 1.500 . S
N1075 C1076 1.420 . S
C1076 O1077 1.271 . D
C1076 C1078 1.440 . S
C1078 C1079 1.302 . D
C1079 C1080 1.304 1_556 D
C1080 C1081 1.456 1_554 S
C1081 C1082 1.338 . D
C1082 N1083 1.411 . S
N1083 C1078 1.418 . S
N1075 H1084 1.042 . S
N1075 H1085 1.041 . S
C1081 H1086 1.500 1_556 S
C1082 H1087 1.500 . S
N1088 C1089 1.420 . S
C1089 O1090 1.271 . D
C1089 C1091 1.440 . S
C1091 C1092 1.302 . D
C1092 C1093 1.304 . D
C1093 C1094 1.456 . S
C1094 C1095 1.338 . D
C1095 N1096 1.411 . S
N1096 C1091 1.418 . S
N1088 H1097 1.042 . S
N1088 H1098 1.041 . S
C1094 H1099 1.500 . S
C1095 H1100 1.500 . S
N1101 C1102 1.420 . S
C1102 O1103 1.271 . D
C1102 C1104 1.440 . S
C1104 C1105 1.302 . D
C1105 C1106 1.304 . D
C1106 C1107 1.456 . S
C1107 C1108 1.338 . D
C1108 N1109 1.411 . S
N1109 C1104 1.418 . S
N1101 H1110 1.042 . S
N1101 H1111 1.041 . S
C1107 H1112 1.500 . S
C1108 H1113 1.500 . S
N1114 C1115 1.420 . S
C1115 O1116 1.271 . D
C1115 C1117 1.440 . S
C1117 C1118 1.302 . D
C1118 C1119 1.304 . D
C1119 C1120 1.456 . S
C1120 C1121 1.338 . D
C1121 N1122 1.411 . S
N1122 C1117 1.418 . S
N1114 H1123 1.042 . S
N1114 H1124 1.041 . S
C1120 H1125 1.500 . S
C1121 H1126 1.500 . S
N1127 C1128 1.420 . S
C1128 O1129 1.271 . D
C1128 C1130 1.440 . S
C1130 C1131 1.302 . D
C1131 C1132 1.304 . D
C1132 C1133 1.456 . S
C1133 C1134 1.338 . D
C1134 N1135 1.411 . S
N1135 C1130 1.418 . S
N1127 H1136 1.042 . S
N1127 H1137 1.041 . S
C1133 H1138 1.500 . S
C1134 H1139 1.500 . S
N1140 C1141 1.420 . S
C1141 O1142 1.271 . D
C1141 C1143 1.440 . S
C1143 C1144 1.301 . D
C1144 C1145 1.304 1_545 D
C1145 C1146 1.456 1_565 S
C1146 C1147 1.338 . D
C1147 N1148 1.411 . S
N1148 C1143 1.418 . S
N1140 H1149 1.042 . S
N1140 H1150 1.041 . S
C1146 H1151 1.500 . S
C1147 H1152 1.500 . S
N1153 C1154 1.420 . S
C1154 O1155 1.271 . D
C1154 C1156 1.440 . S
C1156 C1157 1.302 . D
C1157 C1158 1.304 . D
C1158 C1159 1.456 . S
C1159 C1160 1.338 . D
C1160 N1161 1.411 . S
N1161 C1156 1.418 . S
N1153 H1162 1.042 . S
N1153 H1163 1.041 . S
C1159 H1164 1.500 . S
C1160 H1165 1.500 . S
N1166 C1167 1.420 . S
C1167 O1168 1.271 . D
C1167 C1169 1.440 . S
C1169 C1170 1.302 . D
C1170 C1171 1.304 . D
C1171 C1172 1.456 . S
C1172 C1173 1.338 . D
C1173 N1174 1.411 . S
N1174 C1169 1.418 . S
N1166 H1175 1.042 . S
N1166 H1176 1.041 . S
C1172 H1177 1.500 . S
C1173 H1178 1.500 . S
N1179 C1180 1.420 . S
C1180 O1181 1.271 . D
C1180 C1182 1.440 . S
C1182 C1183 1.302 . D
C1183 C1184 1.304 . D
C1184 C1185 1.456 . S
C1185 C1186 1.338 . D
C1186 N1187 1.411 . S
N1187 C1182 1.418 . S
N1179 H1188 1.042 . S
N1179 H1189 1.041 . S
C1185 H1190 1.500 . S
C1186 H1191 1.500 . S
N1192 C1193 1.420 1_565 S
C1193 O1194 1.271 . D
C1193 C1195 1.440 1_545 S
C1195 C1196 1.302 . D
C1196 C1197 1.304 . D
C1197 C1198 1.456 . S
C1198 C1199 1.338 . D
C1199 N1200 1.411 1_565 S
N1200 C1195 1.418 1_545 S
N1192 H1201 1.042 . S
N1192 H1202 1.041 . S
C1198 H1203 1.500 . S
C1199 H1204 1.500 . S
N1205 C1206 1.420 . S
C1206 O1207 1.271 1_545 D
C1206 C1208 1.440 . S
C1208 C1209 1.302 . D
C1209 C1210 1.304 . D
C1210 C1211 1.456 . S
C1211 C1212 1.338 . D
C1212 N1213 1.411 1_545 S
N1213 C1208 1.418 1_565 S
N1205 H1214 1.042 . S
N1205 H1215 1.041 . S
C1211 H1216 1.500 . S
C1212 H1217 1.500 1_545 S
N1218 C1219 1.420 . S
C1219 O1220 1.271 . D
C1219 C1221 1.440 . S
C1221 C1222 1.302 . D
C1222 C1223 1.304 . D
C1223 C1224 1.456 . S
C1224 C1225 1.338 . D
C1225 N1226 1.411 . S
N1226 C1221 1.418 . S
N1218 H1227 1.042 . S
N1218 H1228 1.041 . S
C1224 H1229 1.500 . S
C1225 H1230 1.500 . S
N1231 C1232 1.420 . S
C1232 O1233 1.271 . D
C1232 C1234 1.440 . S
C1234 C1235 1.302 . D
C1235 C1236 1.304 . D
C1236 C1237 1.456 . S
C1237 C1238 1.338 . D
C1238 N1239 1.411 . S
N1239 C1234 1.418 . S
N1231 H1240 1.042 . S
N1231 H1241 1.041 . S
C1237 H1242 1.500 . S
C1238 H1243 1.500 . S
N1244 C1245 1.418 1_655 S
C1245 O1246 1.274 . D
C1245 C1247 1.439 1_455 S
C1247 C1248 1.302 . D
C1248 C1249 1.304 . D
C1249 C1250 1.456 . S
C1250 C1251 1.338 . D
C1251 N1252 1.411 1_655 S
N1252 C1247 1.418 1_455 S
N1244 H1253 1.042 . S
N1244 H1254 1.041 . S
C1250 H1255 1.500 . S
C1251 H1256 1.500 1_655 S
N1257 C1258 1.420 . S
C1258 O1259 1.271 . D
C1258 C1260 1.440 . S
C1260 C1261 1.302 . D
C1261 C1262 1.304 . D
C1262 C1263 1.456 . S
C1263 C1264 1.338 . D
C1264 N1265 1.411 . S
N1265 C1260 1.418 . S
N1257 H1266 1.042 . S
N1257 H1267 1.041 . S
C1263 H1268 1.500 . S
C1264 H1269 1.500 . S
N1270 C1271 1.420 . S
C1271 O1272 1.271 . D
C1271 C1273 1.440 . S
C1273 C1274 1.302 . D
C1274 C1275 1.304 . D
C1275 C1276 1.456 . S
C1276 C1277 1.338 . D
C1277 N1278 1.411 . S
N1278 C1273 1.418 . S
N1270 H1279 1.042 . S
N1270 H1280 1.041 . S
C1276 H1281 1.500 . S
C1277 H1282 1.500 . S
N1283 C1284 1.420 . S
C1284 O1285 1.271 1_455 D
C1284 C1286 1.440 . S
C1286 C1287 1.302 . D
C1287 C1288 1.304 . D
C1288 C1289 1.456 . S
C1289 C1290 1.338 . D
C1290 N1291 1.411 1_455 S
N1291 C1286 1.418 1_655 S
N1283 H1292 1.042 . S
N1283 H1293 1.041 . S
C1289 H1294 1.500 . S
C1290 H1295 1.500 1_455 S
N1296 C1297 1.420 . S
C1297 O1298 1.271 . D
C1297 C1299 1.440 . S
C1299 C1300 1.302 . D
C1300 C1301 1.304 . D
C1301 C1302 1.456 . S
C1302 C1303 1.338 . D
C1303 N1304 1.411 . S
N1304 C1299 1.418 . S
N1296 H1305 1.042 . S
N1296 H1306 1.041 . S
C1302 H1307 1.500 . S
C1303 H1308 1.500 . S
N1309 C1310 1.420 . S
C1310 O1311 1.271 . D
C1310 C1312 1.440 . S
C1312 C1313 1.302 . D
C1313 C1314 1.304 . D
C1314 C1315 1.456 . S
C1315 C1316 1.338 . D
C1316 N1317 1.411 . S
N1317 C1312 1.418 . S
N1309 H1318 1.042 . S
N1309 H1319 1.041 . S
C1315 H1320 1.500 . S
C1316 H1321 1.500 . S
N1322 C1323 1.420 . S
C1323 O1324 1.271 . D
C1323 C1325 1.440 . S
C1325 C1326 1.302 . D
C1326 C1327 1.304 . D
C1327 C1328 1.456 . S
C1328 C1329 1.338 . D
C1329 N1330 1.411 . S
N1330 C1325 1.418 . S
N1322 H1331 1.042 . S
N1322 H1332 1.041 . S
C1328 H1333 1.500 . S
C1329 H1334 1.500 . S
N1335 C1336 1.420 . S
C1336 O1337 1.271 . D
C1336 C1338 1.440 . S
C1338 C1339 1.302 . D
C1339 C1340 1.304 . D
C1340 C1341 1.456 . S
C1341 C1342 1.338 . D
C1342 N1343 1.411 . S
N1343 C1338 1.418 . S
N1335 H1344 1.042 . S
N1335 H1345 1.041 . S
C1341 H1346 1.500 . S
C1342 H1347 1.500 . S
N1348 C1349 1.420 . S
C1349 O1350 1.271 . D
C1349 C1351 1.440 . S
C1351 C1352 1.302 . D
C1352 C1353 1.304 . D
C1353 C1354 1.456 . S
C1354 C1355 1.338 . D
C1355 N1356 1.411 . S
N1356 C1351 1.418 . S
N1348 H1357 1.042 . S
N1348 H1358 1.041 . S
C1354 H1359 1.500 . S
C1355 H1360 1.500 . S
N1361 C1362 1.420 . S
C1362 O1363 1.271 . D
C1362 C1364 1.440 . S
C1364 C1365 1.302 . D
C1365 C1366 1.304 . D
C1366 C1367 1.456 . S
C1367 C1368 1.338 . D
C1368 N1369 1.411 . S
N1369 C1364 1.418 . S
N1361 H1370 1.042 . S
N1361 H1371 1.041 . S
C1367 H1372 1.500 . S
C1368 H1373 1.500 . S
N1374 C1375 1.420 . S
C1375 O1376 1.271 . D
C1375 C1377 1.440 . S
C1377 C1378 1.302 1_545 D
C1378 C1379 1.304 . D
C1379 C1380 1.455 1_565 S
C1380 C1381 1.339 . D
C1381 N1382 1.411 . S
N1382 C1377 1.418 . S
N1374 H1383 1.042 . S
N1374 H1384 1.041 . S
C1380 H1385 1.499 1_545 S
C1381 H1386 1.500 . S
N1387 C1388 1.420 . S
C1388 O1389 1.271 . D
C1388 C1390 1.440 . S
C1390 C1391 1.302 . D
C1391 C1392 1.304 . D
C1392 C1393 1.456 . S
C1393 C1394 1.338 . D
C1394 N1395 1.411 . S
N1395 C1390 1.418 . S
N1387 H1396 1.042 . S
N1387 H1397 1.041 . S
C1393 H1398 1.500 . S
C1394 H1399 1.500 . S
N1400 C1401 1.420 . S
C1401 O1402 1.271 . D
C1401 C1403 1.440 . S
C1403 C1404 1.302 . D
C1404 C1405 1.304 . D
C1405 C1406 1.456 . S
C1406 C1407 1.338 . D
C1407 N1408 1.411 . S
N1408 C1403 1.418 . S
N1400 H1409 1.042 . S
N1400 H1410 1.041 . S
C1406 H1411 1.500 . S
C1407 H1412 1.500 . S
N1413 C1414 1.420 . S
C1414 O1415 1.271 . D
C1414 C1416 1.440 . S
C1416 C1417 1.302 1_655 D
C1417 C1418 1.304 . D
C1418 C1419 1.456 1_455 S
C1419 C1420 1.338 . D
C1420 N1421 1.411 . S
N1421 C1416 1.418 . S
N1413 H1422 1.042 1_655 S
N1413 H1423 1.041 . S
C1419 H1424 1.500 1_655 S
C1420 H1425 1.500 . S
N1426 C1427 1.420 . S
C1427 O1428 1.271 . D
C1427 C1429 1.440 . S
C1429 C1430 1.302 . D
C1430 C1431 1.304 . D
C1431 C1432 1.456 . S
C1432 C1433 1.338 . D
C1433 N1434 1.411 . S
N1434 C1429 1.418 . S
N1426 H1435 1.042 . S
N1426 H1436 1.041 . S
C1432 H1437 1.500 . S
C1433 H1438 1.500 . S
N1439 C1440 1.420 . S
C1440 O1441 1.271 . D
C1440 C1442 1.440 . S
C1442 C1443 1.302 . D
C1443 C1444 1.304 . D
C1444 C1445 1.456 . S
C1445 C1446 1.338 . D
C1446 N1447 1.411 . S
N1447 C1442 1.418 . S
N1439 H1448 1.042 . S
N1439 H1449 1.041 . S
C1445 H1450 1.500 . S
C1446 H1451 1.500 . S
N1452 C1453 1.420 . S
C1453 O1454 1.271 . D
C1453 C1455 1.440 . S
C1455 C1456 1.302 . D
C1456 C1457 1.304 . D
C1457 C1458 1.456 . S
C1458 C1459 1.338 . D
C1459 N1460 1.411 . S
N1460 C1455 1.418 . S
N1452 H1461 1.042 . S
N1452 H1462 1.041 . S
C1458 H1463 1.500 . S
C1459 H1464 1.500 . S
N1465 C1466 1.420 1_556 S
C1466 O1467 1.271 . D
C1466 C1468 1.440 1_554 S
C1468 C1469 1.302 . D
C1469 C1470 1.304 . D
C1470 C1471 1.456 . S
C1471 C1472 1.338 . D
C1472 N1473 1.411 1_556 S
N1473 C1468 1.418 1_554 S
N1465 H1474 1.042 . S
N1465 H1475 1.039 1_556 S
C1471 H1476 1.500 . S
C1472 H1477 1.500 . S
N1478 C1479 1.420 . S
C1479 O1480 1.271 . D
C1479 C1481 1.440 . S
C1481 C1482 1.302 . D
C1482 C1483 1.304 . D
C1483 C1484 1.456 . S
C1484 C1485 1.338 . D
C1485 N1486 1.411 . S
N1486 C1481 1.418 . S
N1478 H1487 1.042 . S
N1478 H1488 1.041 . S
C1484 H1489 1.500 . S
C1485 H1490 1.500 . S
N1491 C1492 1.420 . S
C1492 O1493 1.271 . D
C1492 C1494 1.440 . S
C1494 C1495 1.302 . D
C1495 C1496 1.304 . D
C1496 C1497 1.456 . S
C1497 C1498 1.338 . D
C1498 N1499 1.411 . S
N1499 C1494 1.418 . S
N1491 H1500 1.042 . S
N1491 H1501 1.041 . S
C1497 H1502 1.500 . S
C1498 H1503 1.500 . S
N1504 C1505 1.420 . S
C1505 O1506 1.271 . D
C1505 C1507 1.440 . S
C1507 C1508 1.302 . D
C1508 C1509 1.304 . D
C1509 C1510 1.456 . S
C1510 C1511 1.338 . D
C1511 N1512 1.411 . S
N1512 C1507 1.418 . S
N1504 H1513 1.042 . S
N1504 H1514 1.041 . S
C1510 H1515 1.500 . S
C1511 H1516 1.500 . S
N1517 C1518 1.420 . S
C1518 O1519 1.271 . D
C1518 C1520 1.440 . S
C1520 C1521 1.302 . D
C1521 C1522 1.304 1_554 D
C1522 C1523 1.456 1_556 S
C1523 C1524 1.338 . D
C1524 N1525 1.411 . S
N1525 C1520 1.418 . S
N1517 H1526 1.042 . S
N1517 H1527 1.041 . S
C1523 H1528 1.500 1_554 S
C1524 H1529 1.500 . S
N1530 C1531 1.420 . S
C1531 O1532 1.271 . D
C1531 C1533 1.440 . S
C1533 C1534 1.302 . D
C1534 C1535 1.304 . D
C1535 C1536 1.456 . S
C1536 C1537 1.338 . D
C1537 N1538 1.411 . S
N1538 C1533 1.418 . S
N1530 H1539 1.042 . S
N1530 H1540 1.041 . S
C1536 H1541 1.500 . S
C1537 H1542 1.500 . S
N1543 C1544 1.420 . S
C1544 O1545 1.271 . D
C1544 C1546 1.440 . S
C1546 C1547 1.302 1_455 D
C1547 C1548 1.304 . D
C1548 C1549 1.456 . S
C1549 C1550 1.330 1_655 D
C1550 N1551 1.416 . S
N1551 C1546 1.418 . S
N1543 H1552 1.042 1_455 S
N1543 H1553 1.041 . S
C1549 H1554 1.500 . S
C1550 H1555 1.503 . S
N1556 C1557 1.420 . S
C1557 O1558 1.271 . D
C1557 C1559 1.440 . S
C1559 C1560 1.302 . D
C1560 C1561 1.304 . D
C1561 C1562 1.456 . S
C1562 C1563 1.338 . D
C1563 N1564 1.411 . S
N1564 C1559 1.418 . S
N1556 H1565 1.042 . S
N1556 H1566 1.041 . S
C1562 H1567 1.500 . S
C1563 H1568 1.500 . S
N1569 C1570 1.420 . S
C1570 O1571 1.271 . D
C1570 C1572 1.440 . S
C1572 C1573 1.302 . D
C1573 C1574 1.304 . D
C1574 C1575 1.456 . S
C1575 C1576 1.338 . D
C1576 N1577 1.411 . S
N1577 C1572 1.418 . S
N1569 H1578 1.042 . S
N1569 H1579 1.041 . S
C1575 H1580 1.500 . S
C1576 H1581 1.500 . S
N1582 C1583 1.420 . S
C1583 O1584 1.271 . D
C1583 C1585 1.440 . S
C1585 C1586 1.302 . D
C1586 C1587 1.304 . D
C1587 C1588 1.456 . S
C1588 C1589 1.338 . D
C1589 N1590 1.411 . S
N1590 C1585 1.418 . S
N1582 H1591 1.042 . S
N1582 H1592 1.041 . S
C1588 H1593 1.500 . S
C1589 H1594 1.500 . S
N1595 C1596 1.420 . S
C1596 O1597 1.271 . D
C1596 C1598 1.440 . S
C1598 C1599 1.302 . D
C1599 C1600 1.304 . D
C1600 C1601 1.456 . S
C1601 C1602 1.338 . D
C1602 N1603 1.411 . S
N1603 C1598 1.418 . S
N1595 H1604 1.042 . S
N1595 H1605 1.041 . S
C1601 H1606 1.500 . S
C1602 H1607 1.500 . S
N1608 C1609 1.420 . S
C1609 O1610 1.271 . D
C1609 C1611 1.440 1_554 S
C1611 C1612 1.302 . D
C1612 C1613 1.304 . D
C1613 C1614 1.456 . S
C1614 C1615 1.338 . D
C1615 N1616 1.411 1_556 S
N1616 C1611 1.418 1_554 S
N1608 H1617 1.042 1_554 S
N1608 H1618 1.041 . S
C1614 H1619 1.500 . S
C1615 H1620 1.500 1_556 S
N1621 C1622 1.420 . S
C1622 O1623 1.271 . D
C1622 C1624 1.440 . S
C1624 C1625 1.302 . D
C1625 C1626 1.304 . D
C1626 C1627 1.456 . S
C1627 C1628 1.338 . D
C1628 N1629 1.411 . S
N1629 C1624 1.418 . S
N1621 H1630 1.042 . S
N1621 H1631 1.041 . S
C1627 H1632 1.500 . S
C1628 H1633 1.500 . S
N1634 C1635 1.420 . S
C1635 O1636 1.271 . D
C1635 C1637 1.440 . S
C1637 C1638 1.302 . D
C1638 C1639 1.304 . D
C1639 C1640 1.456 . S
C1640 C1641 1.338 . D
C1641 N1642 1.411 . S
N1642 C1637 1.418 . S
N1634 H1643 1.042 . S
N1634 H1644 1.041 . S
C1640 H1645 1.500 . S
C1641 H1646 1.500 . S
N1647 C1648 1.420 . S
C1648 O1649 1.271 . D
C1648 C1650 1.440 . S
C1650 C1651 1.302 . D
C1651 C1652 1.304 . D
C1652 C1653 1.456 . S
C1653 C1654 1.338 . D
C1654 N1655 1.411 . S
N1655 C1650 1.418 . S
N1647 H1656 1.042 . S
N1647 H1657 1.041 . S
C1653 H1658 1.500 . S
C1654 H1659 1.500 . S
N1660 C1661 1.420 . S
C1661 O1662 1.271 . D
C1661 C1663 1.440 . S
C1663 C1664 1.302 . D
C1664 C1665 1.304 . D
C1665 C1666 1.456 . S
C1666 C1667 1.338 . D
C1667 N1668 1.411 . S
N1668 C1663 1.418 . S
N1660 H1669 1.042 . S
N1660 H1670 1.041 . S
C1666 H1671 1.500 . S
C1667 H1672 1.500 . S
N1673 C1674 1.420 . S
C1674 O1675 1.271 . D
C1674 C1676 1.440 . S
C1676 C1677 1.302 . D
C1677 C1678 1.304 . D
C1678 C1679 1.456 . S
C1679 C1680 1.338 . D
C1680 N1681 1.411 . S
N1681 C1676 1.418 . S
N1673 H1682 1.042 . S
N1673 H1683 1.041 . S
C1679 H1684 1.500 . S
C1680 H1685 1.500 . S
N1686 C1687 1.420 . S
C1687 O1688 1.271 . D
C1687 C1689 1.440 . S
C1689 C1690 1.302 . D
C1690 C1691 1.304 . D
C1691 C1692 1.456 . S
C1692 C1693 1.338 . D
C1693 N1694 1.411 . S
N1694 C1689 1.418 . S
N1686 H1695 1.042 . S
N1686 H1696 1.041 . S
C1692 H1697 1.500 . S
C1693 H1698 1.500 . S
N1699 C1700 1.420 . S
C1700 O1701 1.271 . D
C1700 C1702 1.440 . S
C1702 C1703 1.302 . D
C1703 C1704 1.304 . D
C1704 C1705 1.456 . S
C1705 C1706 1.338 . D
C1706 N1707 1.411 . S
N1707 C1702 1.418 . S
N1699 H1708 1.042 . S
N1699 H1709 1.041 . S
C1705 H1710 1.500 . S
C1706 H1711 1.500 . S
N1712 C1713 1.420 . S
C1713 O1714 1.271 . D
C1713 C1715 1.440 . S
C1715 C1716 1.302 . D
C1716 C1717 1.304 . D
C1717 C1718 1.456 . S
C1718 C1719 1.338 . D
C1719 N1720 1.411 . S
N1720 C1715 1.418 . S
N1712 H1721 1.042 . S
N1712 H1722 1.041 . S
C1718 H1723 1.500 . S
C1719 H1724 1.500 . S
N1725 C1726 1.420 . S
C1726 O1727 1.271 . D
C1726 C1728 1.440 . S
C1728 C1729 1.302 . D
C1729 C1730 1.304 . D
C1730 C1731 1.456 . S
C1731 C1732 1.338 . D
C1732 N1733 1.411 . S
N1733 C1728 1.418 . S
N1725 H1734 1.042 . S
N1725 H1735 1.041 . S
C1731 H1736 1.500 . S
C1732 H1737 1.500 . S
N1738 C1739 1.420 . S
C1739 O1740 1.271 . D
C1739 C1741 1.440 . S
C1741 C1742 1.302 1_565 D
C1742 C1743 1.304 . D
C1743 C1744 1.475 . S
C1744 C1745 1.301 1_545 D
C1745 N1746 1.411 . S
N1746 C1741 1.418 . S
N1738 H1747 1.042 . S
N1738 H1748 1.041 . S
C1744 H1749 1.516 . S
C1745 H1750 1.500 . S
N1751 C1752 1.420 . S
C1752 O1753 1.271 . D
C1752 C1754 1.440 . S
C1754 C1755 1.302 . D
C1755 C1756 1.304 . D
C1756 C1757 1.456 . S
C1757 C1758 1.338 . D
C1758 N1759 1.411 . S
N1759 C1754 1.418 . S
N1751 H1760 1.042 . S
N1751 H1761 1.041 . S
C1757 H1762 1.500 . S
C1758 H1763 1.500 . S
N1764 C1765 1.420 . S
C1765 O1766 1.271 . D
C1765 C1767 1.440 . S
C1767 C1768 1.302 . D
C1768 C1769 1.304 . D
C1769 C1770 1.456 . S
C1770 C1771 1.338 . D
C1771 N1772 1.411 . S
N1772 C1767 1.418 . S
N1764 H1773 1.042 . S
N1764 H1774 1.041 . S
C1770 H1775 1.500 . S
C1771 H1776 1.500 . S
N1777 C1778 1.420 . S
C1778 O1779 1.271 . D
C1778 C1780 1.440 . S
C1780 C1781 1.302 . D
C1781 C1782 1.304 . D
C1782 C1783 1.456 . S
C1783 C1784 1.338 . D
C1784 N1785 1.411 . S
N1785 C1780 1.418 . S
N1777 H1786 1.042 . S
N1777 H1787 1.041 . S
C1783 H1788 1.500 . S
C1784 H1789 1.500 . S
N1790 C1791 1.420 . S
C1791 O1792 1.271 . D
C1791 C1793 1.440 . S
C1793 C1794 1.302 . D
C1794 C1795 1.304 . D
C1795 C1796 1.456 . S
C1796 C1797 1.338 . D
C1797 N1798 1.411 . S
N1798 C1793 1.418 . S
N1790 H1799 1.042 . S
N1790 H1800 1.041 . S
C1796 H1801 1.500 . S
C1797 H1802 1.500 . S
N1803 C1804 1.420 . S
C1804 O1805 1.271 . D
C1804 C1806 1.440 . S
C1806 C1807 1.302 . D
C1807 C1808 1.317 . D
C1808 C1809 1.478 . S
C1809 C1810 1.338 . D
C1810 N1811 1.411 . S
N1811 C1806 1.418 . S
N1803 H1812 1.042 . S
N1803 H1813 1.041 . S
C1809 H1814 1.500 . S
C1810 H1815 1.500 . S
N1816 C1817 1.420 . S
C1817 O1818 1.271 . D
C1817 C1819 1.440 . S
C1819 C1820 1.302 . D
C1820 C1821 1.304 . D
C1821 C1822 1.456 . S
C1822 C1823 1.338 . D
C1823 N1824 1.411 . S
N1824 C1819 1.418 . S
N1816 H1825 1.042 . S
N1816 H1826 1.041 . S
C1822 H1827 1.500 . S
C1823 H1828 1.500 . S
N1829 C1830 1.420 . S
C1830 O1831 1.271 . D
C1830 C1832 1.440 . S
C1832 C1833 1.302 . D
C1833 C1834 1.304 . D
C1834 C1835 1.456 . S
C1835 C1836 1.338 . D
C1836 N1837 1.411 . S
N1837 C1832 1.418 . S
N1829 H1838 1.042 . S
N1829 H1839 1.041 . S
C1835 H1840 1.500 . S
C1836 H1841 1.500 . S
N1842 C1843 1.420 . S
C1843 O1844 1.271 1_565 D
C1843 C1845 1.440 . S
C1845 C1846 1.302 . D
C1846 C1847 1.304 . D
C1847 C1848 1.456 . S
C1848 C1849 1.340 1_565 D
C1849 N1850 1.410 . S
N1850 C1845 1.418 1_545 S
N1842 H1851 1.042 . S
N1842 H1852 1.041 . S
C1848 H1853 1.500 . S
C1849 H1854 1.498 . S
N1855 C1856 1.420 . S
C1856 O1857 1.271 . D
C1856 C1858 1.440 . S
C1858 C1859 1.302 . D
C1859 C1860 1.304 . D
C1860 C1861 1.456 . S
C1861 C1862 1.338 . D
C1862 N1863 1.411 . S
N1863 C1858 1.418 . S
N1855 H1864 1.042 . S
N1855 H1865 1.041 . S
C1861 H1866 1.500 . S
C1862 H1867 1.500 . S
N1868 C1869 1.420 . S
C1869 O1870 1.271 . D
C1869 C1871 1.440 . S
C1871 C1872 1.302 . D
C1872 C1873 1.304 . D
C1873 C1874 1.456 . S
C1874 C1875 1.338 . D
C1875 N1876 1.411 . S
N1876 C1871 1.418 . S
N1868 H1877 1.042 . S
N1868 H1878 1.041 . S
C1874 H1879 1.500 . S
C1875 H1880 1.500 . S
N1881 C1882 1.420 . S
C1882 O1883 1.271 . D
C1882 C1884 1.440 . S
C1884 C1885 1.302 . D
C1885 C1886 1.304 . D
C1886 C1887 1.456 . S
C1887 C1888 1.338 . D
C1888 N1889 1.411 . S
N1889 C1884 1.418 . S
N1881 H1890 1.042 . S
N1881 H1891 1.041 . S
C1887 H1892 1.500 . S
C1888 H1893 1.500 . S
N1894 C1895 1.420 . S
C1895 O1896 1.271 . D
C1895 C1897 1.440 . S
C1897 C1898 1.302 . D
C1898 C1899 1.297 1_545 D
C1899 C1900 1.443 1_565 S
C1900 C1901 1.338 . D
C1901 N1902 1.411 . S
N1902 C1897 1.418 . S
N1894 H1903 1.042 . S
N1894 H1904 1.041 . S
C1900 H1905 1.500 . S
C1901 H1906 1.500 . S
N1907 C1908 1.420 . S
C1908 O1909 1.271 1_565 D
C1908 C1910 1.440 . S
C1910 C1911 1.302 . D
C1911 C1912 1.304 . D
C1912 C1913 1.456 . S
C1913 C1914 1.338 . D
C1914 N1915 1.411 1_565 S
N1915 C1910 1.418 1_545 S
N1907 H1916 1.042 . S
N1907 H1917 1.041 . S
C1913 H1918 1.500 . S
C1914 H1919 1.500 1_565 S
C677 C403 1.366 . S
N680 C4 1.250 . S
C690 C19 1.227 . S
N693 C396 1.242 . S
C703 C36 1.483 . S
N706 C330 1.454 . S
C716 C47 1.183 . S
N719 C410 1.225 . S
C729 C382 1.382 . S
N732 C64 1.482 . S
C742 C78 1.375 . S
N745 C271 1.268 . S
C755 C92 1.527 . S
N758 C165 1.529 . S
C768 C512 1.530 . S
N771 C106 1.528 . S
C781 C95 1.357 . S
N784 C116 1.259 . S
C794 C88 1.256 . S
N797 C130 1.229 . S
C807 C144 1.274 . S
N810 C8 1.388 . S
C820 C159 1.245 . S
N823 C557 1.352 . S
C833 C652 1.407 . S
N836 C103 1.299 . S
C846 C123 1.407 . S
N849 C425 1.306 . S
C859 C453 1.315 . S
N862 C179 1.407 . S
C872 C137 1.425 . S
N875 C32 1.338 . S
C885 C186 1.276 . S
N888 C582 1.378 . S
C898 C33 1.266 . S
N901 C249 1.383 . S
C911 C50 1.438 . S
N914 C158 1.332 . S
C924 C327 1.421 . S
N927 C207 1.511 . S
C937 C200 1.268 . S
N940 C120 1.393 . S
C950 C218 1.400 . S
N953 C61 1.277 . S
C963 C22 1.419 . S
N966 C187 1.329 . S
C976 C564 1.329 . S
N979 C221 1.423 . S
C989 C228 1.277 . S
N992 C53 1.379 . S
C1002 C246 1.431 . S
N1005 C467 1.334 . S
C1015 C74 1.375 . S
N1018 C263 1.483 . S
C1028 C270 1.190 . S
N1031 C484 1.305 . S
C1041 C288 1.532 . S
N1044 C526 1.530 . S
C1054 C593 1.237 . S
N1057 C298 1.218 . S
C1067 C214 1.279 . S
N1070 C596 1.381 . S
C1080 C235 1.478 . S
N1083 C81 1.451 . S
C1093 C481 1.221 . S
N1096 C243 1.180 . S
C1106 C316 1.505 . S
N1109 C523 1.405 . S
C1119 C649 1.284 . S
N1122 C333 1.388 . S
C1132 C470 1.521 . S
N1135 C344 1.518 . S
C1145 C326 1.246 . S
N1148 C18 1.299 . S
C1158 C361 1.429 . S
N1161 C571 1.432 . S
C1171 C579 1.359 . S
N1174 C372 1.458 . S
C1184 C5 1.211 . S
N1187 C383 1.183 . S
C1197 C204 1.454 . S
N1200 C397 1.346 . S
C1210 C669 1.403 . S
N1213 C411 1.305 . S
C1223 C274 1.409 . S
N1226 C424 1.283 . S
C1236 C102 1.313 . S
N1239 C445 1.415 . S
C1249 C302 1.359 . S
N1252 C452 1.222 . S
C1262 C134 1.350 . S
N1265 C466 1.243 . S
C1275 C662 1.320 . S
N1278 C305 1.413 . S
C1288 C442 1.396 . S
N1291 C256 1.270 . S
C1301 C25 1.359 . S
N1304 C313 1.229 . S
C1314 C291 1.392 . S
N1317 C480 1.283 . S
C1327 C201 1.303 . S
N1330 C277 1.403 . S
C1340 C285 1.293 . S
N1343 C540 1.401 . S
C1353 C75 1.179 . S
N1356 C215 1.226 . S
C1366 C501 1.448 . S
N1369 C190 1.454 . S
C1379 C515 1.471 . S
N1382 C607 1.364 . S
C1392 C522 1.229 . S
N1395 C299 1.268 . S
C1405 C145 1.304 . S
N1408 C543 1.402 . S
C1418 C554 1.428 . S
N1421 C229 1.338 . S
C1431 C610 1.386 . S
N1434 C565 1.282 . S
C1444 C312 1.298 . S
N1447 C585 1.393 . S
C1457 C459 1.500 . S
N1460 C620 1.410 . S
C1470 C358 1.295 . S
N1473 C536 1.194 . S
C1483 C375 1.528 . S
N1486 C431 1.526 . S
C1496 C347 1.378 . S
N1499 C438 1.263 . S
C1509 C551 1.228 . S
N1512 C340 1.249 . S
C1522 C568 1.486 . S
N1525 C627 1.461 . S
C1535 C260 1.538 . S
N1538 C599 1.541 . S
C1548 C60 1.334 . S
N1551 C613 1.422 . S
C1561 C635 1.412 . S
N1564 C151 1.519 . S
C1574 C172 1.192 . S
N1577 C498 1.298 . S
C1587 C638 1.448 . S
N1590 C193 1.479 . S
C1600 C495 1.214 . S
N1603 C606 1.191 . S
C1613 C509 1.373 . S
N1616 C162 1.465 . S
C1626 C537 1.281 . S
N1629 C624 1.369 . S
C1639 C400 1.529 . S
N1642 C67 1.524 . S
C1652 C550 1.278 . S
N1655 C621 1.241 . S
C1665 C355 1.200 . S
N1668 C578 1.179 . S
C1678 C473 1.473 . S
N1681 C368 1.364 . S
C1691 C641 1.369 . S
N1694 C173 1.279 . S
C1704 C39 1.452 . S
N1707 C414 1.446 . S
C1717 C648 1.202 . S
N1720 C417 1.313 . S
C1730 C389 1.523 . S
N1733 C666 1.523 . S
C1743 C386 1.472 . S
N1746 C46 1.364 . S
C1756 C439 1.208 . S
N1759 C369 1.166 . S
C1769 C341 1.337 . S
N1772 C456 1.455 . S
C1782 C354 1.280 . S
N1785 C428 1.390 . S
C1795 C257 1.350 . S
N1798 C655 1.437 . S
C1808 C663 1.248 1_455 S
N1811 C176 1.400 . S
C1821 C11 1.408 . S
N1824 C284 1.307 . S
C1834 C319 1.443 . S
N1837 C592 1.324 . S
C1847 C131 1.277 . S
N1850 C634 1.227 . S
C1860 C487 1.446 . S
N1863 C232 1.451 . S
C1873 C529 1.470 . S
N1876 C242 1.374 . S
C1886 C508 1.182 . S
N1889 C117 1.212 . S
C1899 C89 1.354 . S
N1902 C148 1.451 . S
C1912 C109 1.392 . S
N1915 C494 1.286 . S
