# Generated by pormake.
# Topology srs, (3)-cn, num edge types: 1
# Building blocks:
#     Node 0, Type 0, BuildingBlock: N60, # of connection points: 3
#     Node 1, Type 0, BuildingBlock: N60, # of connection points: 3
#     Node 2, Type 0, BuildingBlock: N60, # of connection points: 3
#     Node 3, Type 0, BuildingBlock: N60, # of connection points: 3
#     Node 4, Type 0, BuildingBlock: N60, # of connection points: 3
#     Node 5, Type 0, BuildingBlock: N60, # of connection points: 3
#     Node 6, Type 0, BuildingBlock: N60, # of connection points: 3
#     Node 7, Type 0, BuildingBlock: N60, # of connection points: 3
#     Edge 8, Type (0, 0), BuildingBlock: NCCC(CC(CN)(C[Fr])CC[Fr])NCN, # of connection points: 2
#     Edge 9, Type (0, 0), BuildingBlock: NCCC(CC(CN)(C[Fr])CC[Fr])NCN, # of connection points: 2
#     Edge 10, Type (0, 0), BuildingBlock: NCCC(CC(CN)(C[Fr])CC[Fr])NCN, # of connection points: 2
#     Edge 11, Type (0, 0), BuildingBlock: NCCC(CC(CN)(C[Fr])CC[Fr])NCN, # of connection points: 2
#     Edge 12, Type (0, 0), BuildingBlock: NCCC(CC(CN)(C[Fr])CC[Fr])NCN, # of connection points: 2
#     Edge 13, Type (0, 0), BuildingBlock: NCCC(CC(CN)(C[Fr])CC[Fr])NCN, # of connection points: 2
#     Edge 14, Type (0, 0), BuildingBlock: NCCC(CC(CN)(C[Fr])CC[Fr])NCN, # of connection points: 2
#     Edge 15, Type (0, 0), BuildingBlock: NCCC(CC(CN)(C[Fr])CC[Fr])NCN, # of connection points: 2
#     Edge 16, Type (0, 0), BuildingBlock: NCCC(CC(CN)(C[Fr])CC[Fr])NCN, # of connection points: 2
#     Edge 17, Type (0, 0), BuildingBlock: NCCC(CC(CN)(C[Fr])CC[Fr])NCN, # of connection points: 2
#     Edge 18, Type (0, 0), BuildingBlock: NCCC(CC(CN)(C[Fr])CC[Fr])NCN, # of connection points: 2
#     Edge 19, Type (0, 0), BuildingBlock: NCCC(CC(CN)(C[Fr])CC[Fr])NCN, # of connection points: 2
# Relax obj value: 0.000
# Max RMSD: 0.049
# Mean RMSD: 0.034
data_NCCC(CC(CN)(C[Fr])CC[Fr])NCN_srs_N60
_symmetry_space_group_name_H-M    P1
_symmetry_Int_Tables_number       1
_symmetry_cell_setting            triclinic
loop_
_symmetry_equiv_pos_as_xyz
'x, y, z'
_cell_length_a     24.693
_cell_length_b     27.951
_cell_length_c     33.596
_cell_angle_alpha  90.002
_cell_angle_beta   82.917
_cell_angle_gamma  98.065
loop_
_atom_site_label
_atom_site_type_symbol
_atom_site_fract_x
_atom_site_fract_y
_atom_site_fract_z
_atom_type_partial_charge
C0 C 0.94512 0.66158 0.38236 0.0
O1 O 0.84771 0.60623 0.45745 0.0
O2 O 0.77669 0.59041 0.42356 0.0
C3 C 0.87251 0.54249 0.31585 0.0
O4 O 0.91178 0.54738 0.33725 0.0
C5 C 0.79666 0.60404 0.45447 0.0
O6 O 0.82569 0.55096 0.32909 0.0
O7 O 0.96849 0.62970 0.39735 0.0
O8 O 0.89609 0.65338 0.37491 0.0
Cd9 Cd 0.87457 0.57414 0.39621 0.0
C10 C 0.58133 0.31247 0.86633 0.0
O11 O 0.66325 0.37150 0.93296 0.0
O12 O 0.73710 0.39817 0.89113 0.0
C13 C 0.64512 0.44244 0.79695 0.0
O14 O 0.60339 0.43121 0.82295 0.0
C15 C 0.71519 0.37994 0.92391 0.0
O16 O 0.69245 0.43865 0.80415 0.0
O17 O 0.55101 0.33941 0.88590 0.0
O18 O 0.63085 0.32689 0.85335 0.0
Cd19 Cd 0.63832 0.40465 0.87632 0.0
C20 C 0.92204 0.33501 0.11805 0.0
O21 O 0.86735 0.41178 0.18815 0.0
O22 O 0.87202 0.47675 0.15019 0.0
C23 C 0.81560 0.39778 0.04658 0.0
O24 O 0.80813 0.36139 0.07023 0.0
C25 C 0.87716 0.45724 0.18244 0.0
O26 O 0.83354 0.43877 0.05748 0.0
O27 O 0.87755 0.31102 0.13419 0.0
O28 O 0.92538 0.37868 0.10791 0.0
Cd29 Cd 0.83611 0.39111 0.12775 0.0
C30 C 0.64632 0.61154 0.57012 0.0
O31 O 0.59597 0.53727 0.65284 0.0
O32 O 0.59131 0.59206 0.69971 0.0
C33 C 0.52441 0.69449 0.62674 0.0
O34 O 0.52244 0.66059 0.60161 0.0
C35 C 0.60229 0.55202 0.68794 0.0
O36 O 0.54158 0.69002 0.65955 0.0
O37 O 0.60499 0.58486 0.55964 0.0
O38 O 0.64555 0.63055 0.60403 0.0
Cd39 Cd 0.55707 0.60116 0.63098 0.0
C40 C 0.08134 0.81246 0.36633 0.0
O41 O 0.16325 0.87149 0.43295 0.0
O42 O 0.23710 0.89817 0.39112 0.0
C43 C 0.14511 0.94242 0.29694 0.0
O44 O 0.10338 0.93119 0.32295 0.0
C45 C 0.21520 0.87993 0.42390 0.0
O46 O 0.19244 0.93864 0.30414 0.0
O47 O 0.05101 0.83939 0.38589 0.0
O48 O 0.13085 0.82688 0.35334 0.0
Cd49 Cd 0.13832 0.90464 0.37631 0.0
C50 C 0.42205 0.83501 0.61805 0.0
O51 O 0.36735 0.91178 0.68815 0.0
O52 O 0.37202 0.97675 0.65018 0.0
C53 C 0.31560 0.89777 0.54657 0.0
O54 O 0.30813 0.86138 0.57022 0.0
C55 C 0.37716 0.95724 0.68244 0.0
O56 O 0.33353 0.93876 0.55747 0.0
O57 O 0.37756 0.81102 0.63418 0.0
O58 O 0.42538 0.87869 0.60790 0.0
Cd59 Cd 0.33611 0.89111 0.62775 0.0
C60 C 0.44509 0.16160 0.88235 0.0
O61 O 0.34768 0.10624 0.95744 0.0
O62 O 0.27666 0.09042 0.92354 0.0
C63 C 0.37249 0.04251 0.81584 0.0
O64 O 0.41175 0.04740 0.83724 0.0
C65 C 0.29663 0.10406 0.95446 0.0
O66 O 0.32567 0.05098 0.82908 0.0
O67 O 0.46846 0.12972 0.89734 0.0
O68 O 0.39606 0.15340 0.87490 0.0
Cd69 Cd 0.37454 0.07416 0.89620 0.0
C70 C 0.14628 0.11152 0.07012 0.0
O71 O 0.09594 0.03724 0.15283 0.0
O72 O 0.09127 0.09203 0.19970 0.0
C73 C 0.02437 0.19447 0.12674 0.0
O74 O 0.02240 0.16056 0.10161 0.0
C75 C 0.10225 0.05199 0.18794 0.0
O76 O 0.04154 0.19000 0.15955 0.0
O77 O 0.10495 0.08484 0.05964 0.0
O78 O 0.14551 0.13053 0.10403 0.0
Cd79 Cd 0.05703 0.10113 0.13097 0.0
N80 N 0.66476 0.57801 0.36485 0.0
C81 C 0.68932 0.53548 0.36999 0.0
C82 C 0.74760 0.53756 0.34656 0.0
C83 C 0.74007 0.54430 0.30338 0.0
C84 C 0.78673 0.54786 0.27256 0.0
C85 C 0.82180 0.50795 0.26547 0.0
C86 C 0.79249 0.46088 0.25688 0.0
N87 N 0.82652 0.42323 0.25207 0.0
C88 C 0.86232 0.51040 0.29560 0.0
C89 C 0.85896 0.52716 0.22644 0.0
C90 C 0.89847 0.49556 0.20921 0.0
N91 N 0.71504 0.58953 0.30297 0.0
C92 C 0.74975 0.63134 0.31310 0.0
N93 N 0.71716 0.67181 0.31216 0.0
H94 H 0.63192 0.57111 0.34791 0.0
H95 H 0.64915 0.59059 0.39218 0.0
H96 H 0.66156 0.50398 0.36121 0.0
H97 H 0.69205 0.53041 0.40270 0.0
H98 H 0.77490 0.56536 0.35923 0.0
H99 H 0.75706 0.50016 0.35265 0.0
H100 H 0.70419 0.51628 0.29850 0.0
H101 H 0.81718 0.58058 0.27829 0.0
H102 H 0.77309 0.55667 0.24304 0.0
H103 H 0.75551 0.44735 0.27852 0.0
H104 H 0.77346 0.46080 0.22752 0.0
H105 H 0.86234 0.42765 0.26462 0.0
H106 H 0.80411 0.38951 0.26445 0.0
H107 H 0.84473 0.50903 0.32716 0.0
H108 H 0.89246 0.48434 0.29047 0.0
H109 H 0.88416 0.56171 0.23512 0.0
H110 H 0.83032 0.53594 0.20531 0.0
H111 H 0.92823 0.48787 0.23069 0.0
H112 H 0.92806 0.51426 0.18331 0.0
H113 H 0.69642 0.59284 0.27787 0.0
H114 H 0.76426 0.63212 0.34266 0.0
H115 H 0.78704 0.64158 0.29044 0.0
H116 H 0.68379 0.66302 0.29697 0.0
H117 H 0.74233 0.70298 0.30019 0.0
N118 N 0.04847 0.43544 0.98946 0.0
C119 C 0.00885 0.46830 0.99331 0.0
C120 C 0.94885 0.44305 0.00339 0.0
C121 C 0.93925 0.40933 0.96942 0.0
C122 C 0.88671 0.37941 0.96897 0.0
C123 C 0.83376 0.40053 0.96927 0.0
C124 C 0.83244 0.43453 0.93666 0.0
N125 N 0.78251 0.45561 0.93877 0.0
C126 C 0.81338 0.41396 0.01125 0.0
C127 C 0.79337 0.35425 0.96247 0.0
C128 C 0.73605 0.36148 0.95946 0.0
N129 N 0.98271 0.37770 0.96960 0.0
C130 C 0.97749 0.34806 0.00447 0.0
N131 N 0.02496 0.32070 0.99990 0.0
H132 H 0.06597 0.43343 0.95972 0.0
H133 H 0.08038 0.44655 0.00602 0.0
H134 H 0.01366 0.49005 0.96545 0.0
H135 H 0.01871 0.49421 0.01767 0.0
H136 H 0.94438 0.42686 0.03296 0.0
H137 H 0.92522 0.47462 0.00232 0.0
H138 H 0.95453 0.43214 0.94163 0.0
H139 H 0.87879 0.35429 0.99614 0.0
H140 H 0.88955 0.35425 0.94295 0.0
H141 H 0.86762 0.46454 0.93206 0.0
H142 H 0.83570 0.41698 0.90586 0.0
H143 H 0.75927 0.45612 0.96594 0.0
H144 H 0.79112 0.49284 0.92860 0.0
H145 H 0.84213 0.43890 0.02630 0.0
H146 H 0.77231 0.42646 0.01441 0.0
H147 H 0.79221 0.33043 0.98990 0.0
H148 H 0.81296 0.33682 0.93574 0.0
H149 H 0.71618 0.37817 0.98726 0.0
H150 H 0.70786 0.32556 0.95883 0.0
H151 H 0.98917 0.36042 0.94309 0.0
H152 H 0.97858 0.36579 0.03350 0.0
H153 H 0.93998 0.31984 0.00757 0.0
H154 H 0.04278 0.32141 0.97029 0.0
H155 H 0.01291 0.28534 0.01054 0.0
N156 N 0.64502 0.80958 0.61452 0.0
C157 C 0.61955 0.78375 0.58349 0.0
C158 C 0.63674 0.73297 0.57675 0.0
C159 C 0.69816 0.74159 0.56608 0.0
C160 C 0.72857 0.70148 0.55773 0.0
C161 C 0.71751 0.66693 0.52428 0.0
C162 C 0.72255 0.68887 0.48442 0.0
N163 N 0.70938 0.65538 0.45356 0.0
C164 C 0.66787 0.63029 0.53745 0.0
C165 C 0.76582 0.63694 0.52503 0.0
C166 C 0.76961 0.59953 0.49433 0.0
N167 N 0.71825 0.76796 0.60095 0.0
C168 C 0.70826 0.74069 0.63731 0.0
N169 N 0.72955 0.77334 0.66826 0.0
H170 H 0.67384 0.83860 0.60278 0.0
H171 H 0.61619 0.82374 0.63427 0.0
H172 H 0.62900 0.80574 0.55566 0.0
H173 H 0.57377 0.77985 0.59158 0.0
H174 H 0.62113 0.71091 0.60314 0.0
H175 H 0.61529 0.72096 0.54999 0.0
H176 H 0.70549 0.77099 0.54235 0.0
H177 H 0.72285 0.67730 0.58540 0.0
H178 H 0.77392 0.71529 0.55366 0.0
H179 H 0.69904 0.71976 0.48170 0.0
H180 H 0.76646 0.70665 0.47348 0.0
H181 H 0.68495 0.62364 0.46178 0.0
H182 H 0.68864 0.67179 0.43182 0.0
H183 H 0.62983 0.64480 0.54791 0.0
H184 H 0.65951 0.60133 0.51546 0.0
H185 H 0.75803 0.61749 0.55518 0.0
H186 H 0.80376 0.66380 0.52395 0.0
H187 H 0.73125 0.57177 0.49639 0.0
H188 H 0.80218 0.57579 0.49947 0.0
H189 H 0.75736 0.78554 0.59420 0.0
H190 H 0.66544 0.72698 0.64886 0.0
H191 H 0.73208 0.70925 0.63711 0.0
H192 H 0.75561 0.80260 0.65569 0.0
H193 H 0.74832 0.75425 0.68818 0.0
N194 N 0.46060 0.45680 0.58950 0.0
C195 C 0.44780 0.47735 0.62783 0.0
C196 C 0.49925 0.49444 0.64883 0.0
C197 C 0.52616 0.45013 0.65307 0.0
C198 C 0.57615 0.45282 0.67166 0.0
C199 C 0.57903 0.46918 0.71418 0.0
C200 C 0.53979 0.44162 0.74459 0.0
N201 N 0.54188 0.45938 0.78448 0.0
C202 C 0.58570 0.52344 0.71559 0.0
C203 C 0.63749 0.45824 0.72023 0.0
C204 C 0.65431 0.46833 0.76030 0.0
N205 N 0.53720 0.43360 0.61126 0.0
C206 C 0.57572 0.46609 0.58602 0.0
N207 N 0.57979 0.44405 0.54590 0.0
H208 H 0.44760 0.41961 0.59015 0.0
H209 H 0.44090 0.47154 0.56810 0.0
H210 H 0.41855 0.45077 0.64670 0.0
H211 H 0.42563 0.50896 0.62375 0.0
H212 H 0.52362 0.52425 0.63164 0.0
H213 H 0.47964 0.50594 0.67871 0.0
H214 H 0.49150 0.42177 0.66594 0.0
H215 H 0.60968 0.47841 0.65341 0.0
H216 H 0.59182 0.41696 0.66893 0.0
H217 H 0.49582 0.43685 0.73888 0.0
H218 H 0.54700 0.40226 0.74717 0.0
H219 H 0.55807 0.49450 0.78775 0.0
H220 H 0.50106 0.45561 0.80090 0.0
H221 H 0.55410 0.54060 0.70327 0.0
H222 H 0.59229 0.53843 0.74552 0.0
H223 H 0.66701 0.48307 0.69830 0.0
H224 H 0.63870 0.42012 0.71107 0.0
H225 H 0.65418 0.50750 0.76883 0.0
H226 H 0.69951 0.46437 0.76109 0.0
H227 H 0.54388 0.39843 0.61021 0.0
H228 H 0.56605 0.50264 0.58157 0.0
H229 H 0.61865 0.47010 0.59463 0.0
H230 H 0.56426 0.40810 0.54739 0.0
H231 H 0.62056 0.44998 0.53211 0.0
N232 N 0.52087 0.59517 0.47873 0.0
C233 C 0.55939 0.63592 0.48693 0.0
C234 C 0.54400 0.65896 0.52788 0.0
C235 C 0.48830 0.67375 0.52580 0.0
C236 C 0.46087 0.69679 0.55943 0.0
C237 C 0.48597 0.74385 0.57578 0.0
C238 C 0.49963 0.78406 0.54705 0.0
N239 N 0.52568 0.82769 0.56304 0.0
C240 C 0.52809 0.73482 0.60259 0.0
C241 C 0.43699 0.75507 0.60633 0.0
C242 C 0.44608 0.80094 0.62772 0.0
N243 N 0.45340 0.62802 0.51761 0.0
C244 C 0.44606 0.59290 0.54893 0.0
N245 N 0.41192 0.55005 0.53470 0.0
H246 H 0.49849 0.60299 0.45575 0.0
H247 H 0.54086 0.56627 0.46948 0.0
H248 H 0.56324 0.66263 0.46230 0.0
H249 H 0.60091 0.62404 0.48649 0.0
H250 H 0.54689 0.63344 0.55133 0.0
H251 H 0.57699 0.69133 0.52679 0.0
H252 H 0.49262 0.69355 0.49616 0.0
H253 H 0.45333 0.67116 0.58626 0.0
H254 H 0.41823 0.70128 0.55306 0.0
H255 H 0.52500 0.77684 0.51842 0.0
H256 H 0.46164 0.79526 0.53527 0.0
H257 H 0.54524 0.82502 0.58773 0.0
H258 H 0.55650 0.84655 0.54075 0.0
H259 H 0.56140 0.71578 0.58910 0.0
H260 H 0.54549 0.76739 0.61820 0.0
H261 H 0.43051 0.72512 0.62983 0.0
H262 H 0.40070 0.75196 0.58942 0.0
H263 H 0.48232 0.80314 0.64558 0.0
H264 H 0.41086 0.80413 0.65250 0.0
H265 H 0.41825 0.63406 0.50661 0.0
H266 H 0.48282 0.57998 0.55776 0.0
H267 H 0.42170 0.60365 0.57717 0.0
H268 H 0.39264 0.55854 0.51092 0.0
H269 H 0.38380 0.53387 0.55834 0.0
N270 N 0.02663 0.49823 0.40792 0.0
C271 C 0.01303 0.53414 0.43619 0.0
C272 C 0.99695 0.57936 0.41664 0.0
C273 C 0.04630 0.59892 0.38770 0.0
C274 C 0.04577 0.64172 0.36378 0.0
C275 C 0.03723 0.68956 0.38242 0.0
C276 C 0.07635 0.70803 0.40976 0.0
N277 N 0.06567 0.75247 0.42837 0.0
C278 C 0.97688 0.69055 0.39530 0.0
C279 C 0.04868 0.72294 0.34446 0.0
C280 C 0.04604 0.77462 0.35151 0.0
N281 N 0.05469 0.55806 0.36050 0.0
C282 C 0.01130 0.54473 0.33699 0.0
N283 N 0.02646 0.50304 0.31312 0.0
H284 H 0.06867 0.49561 0.40499 0.0
H285 H 0.00601 0.46456 0.41706 0.0
H286 H 0.04804 0.54406 0.45335 0.0
H287 H 0.97769 0.51770 0.45833 0.0
H288 H 0.95892 0.56896 0.40415 0.0
H289 H 0.99173 0.60339 0.44336 0.0
H290 H 0.08211 0.59983 0.40554 0.0
H291 H 0.01185 0.63446 0.34386 0.0
H292 H 0.08451 0.64794 0.34197 0.0
H293 H 0.08194 0.68245 0.43393 0.0
H294 H 0.12051 0.71668 0.39414 0.0
H295 H 0.02672 0.76102 0.43008 0.0
H296 H 0.07513 0.75303 0.45889 0.0
H297 H 0.95607 0.66163 0.41597 0.0
H298 H 0.96683 0.72602 0.40661 0.0
H299 H 0.01490 0.70984 0.32548 0.0
H300 H 0.08897 0.71571 0.32873 0.0
H301 H 0.00438 0.78157 0.36665 0.0
H302 H 0.04899 0.79580 0.32212 0.0
H303 H 0.09337 0.56213 0.34517 0.0
H304 H 0.96992 0.53308 0.35263 0.0
H305 H 0.00725 0.57314 0.31431 0.0
H306 H 0.06741 0.50017 0.31246 0.0
H307 H 0.01520 0.50526 0.28425 0.0
N308 N 0.32761 0.71815 0.61602 0.0
C309 C 0.36294 0.73958 0.58193 0.0
C310 C 0.34472 0.78607 0.56626 0.0
C311 C 0.28762 0.77083 0.55568 0.0
C312 C 0.25747 0.80565 0.53989 0.0
C313 C 0.27863 0.83390 0.50158 0.0
C314 C 0.28988 0.80506 0.46619 0.0
N315 N 0.31227 0.83291 0.43064 0.0
C316 C 0.32106 0.87573 0.50953 0.0
C317 C 0.22782 0.85913 0.49595 0.0
C318 C 0.23287 0.88945 0.45945 0.0
N319 N 0.25631 0.75003 0.59375 0.0
C320 C 0.25097 0.78379 0.62495 0.0
N321 N 0.22033 0.75610 0.66022 0.0
H322 H 0.30502 0.68563 0.60872 0.0
H323 H 0.35017 0.71037 0.63851 0.0
H324 H 0.36529 0.71250 0.55820 0.0
H325 H 0.40561 0.74851 0.59039 0.0
H326 H 0.34908 0.81344 0.58872 0.0
H327 H 0.37536 0.79457 0.53859 0.0
H328 H 0.29109 0.73751 0.53728 0.0
H329 H 0.25128 0.83451 0.56299 0.0
H330 H 0.21441 0.78789 0.53708 0.0
H331 H 0.31660 0.77659 0.46939 0.0
H332 H 0.25109 0.78233 0.45736 0.0
H333 H 0.33157 0.86707 0.43392 0.0
H334 H 0.34228 0.81478 0.41270 0.0
H335 H 0.35634 0.86667 0.52322 0.0
H336 H 0.33564 0.90043 0.48331 0.0
H337 H 0.22311 0.88403 0.52234 0.0
H338 H 0.19198 0.82989 0.49847 0.0
H339 H 0.26871 0.91976 0.45774 0.0
H340 H 0.19665 0.91069 0.45959 0.0
H341 H 0.22076 0.72864 0.58912 0.0
H342 H 0.28872 0.80260 0.63503 0.0
H343 H 0.22498 0.81223 0.61878 0.0
H344 H 0.20084 0.72343 0.65222 0.0
H345 H 0.19279 0.77666 0.67598 0.0
N346 N 0.25558 0.19801 0.80828 0.0
C347 C 0.23624 0.14815 0.81725 0.0
C348 C 0.28204 0.11552 0.81005 0.0
C349 C 0.30405 0.12250 0.76648 0.0
C350 C 0.34806 0.09715 0.74909 0.0
C351 C 0.34256 0.04277 0.74911 0.0
C352 C 0.29655 0.01834 0.73018 0.0
N353 N 0.29096 0.96663 0.73227 0.0
C354 C 0.35213 0.02419 0.78930 0.0
C355 C 0.39655 0.03558 0.72217 0.0
C356 C 0.40455 0.98511 0.71400 0.0
N357 N 0.32272 0.17526 0.76214 0.0
C358 C 0.36722 0.19225 0.78369 0.0
N359 N 0.37849 0.24516 0.77656 0.0
H360 H 0.24059 0.20938 0.78269 0.0
H361 H 0.24232 0.21947 0.83147 0.0
H362 H 0.20238 0.13617 0.79947 0.0
H363 H 0.21792 0.14456 0.84947 0.0
H364 H 0.31106 0.12486 0.83127 0.0
H365 H 0.25745 0.07861 0.81624 0.0
H366 H 0.26621 0.11834 0.75054 0.0
H367 H 0.38581 0.10844 0.76469 0.0
H368 H 0.36137 0.11029 0.71730 0.0
H369 H 0.25536 0.02907 0.74060 0.0
H370 H 0.30037 0.02692 0.69657 0.0
H371 H 0.30801 0.95116 0.75423 0.0
H372 H 0.24802 0.95123 0.73635 0.0
H373 H 0.32564 0.03512 0.81523 0.0
H374 H 0.35285 0.98458 0.79074 0.0
H375 H 0.43122 0.05161 0.73936 0.0
H376 H 0.39726 0.05772 0.69455 0.0
H377 H 0.40507 0.96329 0.74231 0.0
H378 H 0.44742 0.98266 0.69778 0.0
H379 H 0.32710 0.18680 0.73299 0.0
H380 H 0.36128 0.18684 0.81633 0.0
H381 H 0.40673 0.17847 0.77216 0.0
H382 H 0.36098 0.25533 0.75242 0.0
H383 H 0.42094 0.25686 0.77345 0.0
N384 N 0.06223 0.93239 0.12780 0.0
C385 C 0.11109 0.96116 0.13768 0.0
C386 C 0.12730 0.00814 0.11209 0.0
C387 C 0.13551 0.99184 0.06950 0.0
C388 C 0.15112 0.02677 0.03702 0.0
C389 C 0.20354 0.06211 0.03420 0.0
C390 C 0.25413 0.04073 0.03369 0.0
N391 N 0.30301 0.07528 0.03281 0.0
C392 C 0.19557 0.10394 0.06140 0.0
C393 C 0.20356 0.08477 0.99196 0.0
C394 C 0.25149 0.12089 0.97792 0.0
N395 N 0.08177 0.96322 0.06386 0.0
C396 C 0.03724 0.99046 0.06636 0.0
N397 N 0.98773 0.95565 0.06120 0.0
H398 H 0.07120 0.90066 0.11372 0.0
H399 H 0.03517 0.92222 0.15329 0.0
H400 H 0.14482 0.93899 0.13475 0.0
H401 H 0.10434 0.97085 0.17007 0.0
H402 H 0.09605 0.03120 0.11934 0.0
H403 H 0.16769 0.02294 0.12283 0.0
H404 H 0.16259 0.96273 0.07022 0.0
H405 H 0.11766 0.05057 0.03671 0.0
H406 H 0.15074 0.00749 0.00769 0.0
H407 H 0.25467 0.01396 0.05822 0.0
H408 H 0.26264 0.01788 0.00598 0.0
H409 H 0.29898 0.10912 0.04284 0.0
H410 H 0.33179 0.06241 0.05053 0.0
H411 H 0.18193 0.09477 0.09302 0.0
H412 H 0.23116 0.13336 0.05875 0.0
H413 H 0.16608 0.10423 0.99448 0.0
H414 H 0.19753 0.05379 0.97143 0.0
H415 H 0.25636 0.15278 0.99859 0.0
H416 H 0.24572 0.13951 0.94884 0.0
H417 H 0.08493 0.94114 0.03980 0.0
H418 H 0.02715 0.00921 0.09436 0.0
H419 H 0.04077 0.01776 0.04129 0.0
H420 H 0.99801 0.92406 0.04911 0.0
H421 H 0.96205 0.97140 0.04411 0.0
N422 N 0.29782 0.17559 0.13565 0.0
C423 C 0.28114 0.12800 0.12210 0.0
C424 C 0.22901 0.10150 0.14740 0.0
C425 C 0.24381 0.09957 0.18930 0.0
C426 C 0.20416 0.07700 0.22137 0.0
C427 C 0.17927 0.02467 0.22043 0.0
C428 C 0.21849 0.99006 0.21623 0.0
N429 N 0.19371 0.94080 0.21363 0.0
C430 C 0.13337 0.01909 0.19451 0.0
C431 C 0.14750 0.01818 0.26342 0.0
C432 C 0.11878 0.96924 0.27419 0.0
N433 N 0.25947 0.15105 0.19900 0.0
C434 C 0.21570 0.17909 0.20079 0.0
N435 N 0.23971 0.22894 0.20953 0.0
H436 H 0.33444 0.17747 0.14847 0.0
H437 H 0.30496 0.20028 0.11208 0.0
H438 H 0.31589 0.10719 0.12175 0.0
H439 H 0.27280 0.13064 0.09022 0.0
H440 H 0.19461 0.12004 0.14319 0.0
H441 H 0.22578 0.06472 0.13343 0.0
H442 H 0.28498 0.08611 0.18571 0.0
H443 H 0.16718 0.09712 0.22499 0.0
H444 H 0.22170 0.08285 0.25059 0.0
H445 H 0.25254 0.99729 0.19096 0.0
H446 H 0.24294 0.98977 0.24299 0.0
H447 H 0.15558 0.93435 0.20451 0.0
H448 H 0.21941 0.92132 0.19308 0.0
H449 H 0.14427 0.03269 0.16363 0.0
H450 H 0.11021 0.98200 0.19472 0.0
H451 H 0.11465 0.04277 0.26444 0.0
H452 H 0.17789 0.03192 0.28402 0.0
H453 H 0.08703 0.95617 0.25356 0.0
H454 H 0.09177 0.96856 0.30433 0.0
H455 H 0.28199 0.15483 0.22256 0.0
H456 H 0.19546 0.18183 0.17380 0.0
H457 H 0.18220 0.16843 0.22627 0.0
H458 H 0.27685 0.22972 0.22024 0.0
H459 H 0.21176 0.24510 0.22924 0.0
N460 N 0.79265 0.23984 0.82003 0.0
C461 C 0.75303 0.24728 0.79392 0.0
C462 C 0.69835 0.25969 0.81635 0.0
C463 C 0.67683 0.21746 0.84416 0.0
C464 C 0.62563 0.21680 0.87017 0.0
C465 C 0.57184 0.21973 0.85407 0.0
C466 C 0.55582 0.18245 0.82578 0.0
N467 N 0.50578 0.18747 0.80965 0.0
C468 C 0.56761 0.27133 0.84382 0.0
C469 C 0.53103 0.21025 0.89323 0.0
C470 C 0.47223 0.20861 0.88867 0.0
N471 N 0.72185 0.21481 0.86918 0.0
C472 C 0.73201 0.25520 0.89404 0.0
N473 N 0.77876 0.24647 0.91540 0.0
H474 H 0.79833 0.20359 0.82101 0.0
H475 H 0.83060 0.25940 0.81019 0.0
H476 H 0.74562 0.21488 0.77563 0.0
H477 H 0.77135 0.27759 0.77248 0.0
H478 H 0.70651 0.29443 0.83006 0.0
H479 H 0.67280 0.26073 0.79088 0.0
H480 H 0.67987 0.18491 0.82473 0.0
H481 H 0.62981 0.24827 0.89131 0.0
H482 H 0.61928 0.18418 0.89066 0.0
H483 H 0.58767 0.17754 0.80010 0.0
H484 H 0.54762 0.14450 0.83994 0.0
H485 H 0.49340 0.22072 0.81002 0.0
H486 H 0.50849 0.17700 0.77863 0.0
H487 H 0.60114 0.28990 0.82263 0.0
H488 H 0.52725 0.27692 0.83456 0.0
H489 H 0.54200 0.24192 0.91313 0.0
H490 H 0.54075 0.17674 0.90691 0.0
H491 H 0.46269 0.24337 0.87562 0.0
H492 H 0.44557 0.20674 0.91902 0.0
H493 H 0.71854 0.18193 0.88307 0.0
H494 H 0.74385 0.29092 0.87961 0.0
H495 H 0.69717 0.25847 0.91830 0.0
H496 H 0.78485 0.21102 0.91414 0.0
H497 H 0.77287 0.25820 0.94497 0.0
N498 N 0.08760 0.50168 0.05635 0.0
C499 C 0.05976 0.46503 0.03359 0.0
C500 C 0.02588 0.42309 0.05976 0.0
C501 C 0.06686 0.40264 0.08188 0.0
C502 C 0.04930 0.36235 0.10954 0.0
C503 C 0.02172 0.31435 0.09655 0.0
C504 C 0.05290 0.29134 0.06416 0.0
N505 N 0.02457 0.24684 0.05128 0.0
C506 C 0.96171 0.31652 0.09412 0.0
C507 C 0.01978 0.28359 0.13536 0.0
C508 C 0.99653 0.23229 0.13325 0.0
N509 N 0.09152 0.44443 0.10404 0.0
C510 C 0.05405 0.46237 0.13377 0.0
N511 N 0.08573 0.50426 0.15138 0.0
H512 H 0.13015 0.50158 0.05185 0.0
H513 H 0.08065 0.53557 0.04785 0.0
H514 H 0.09032 0.45152 0.01132 0.0
H515 H 0.03138 0.48196 0.01613 0.0
H516 H 0.99251 0.43692 0.07784 0.0
H517 H 0.01106 0.39770 0.03608 0.0
H518 H 0.10181 0.39791 0.05802 0.0
H519 H 0.01875 0.37337 0.13460 0.0
H520 H 0.08511 0.35523 0.12520 0.0
H521 H 0.06858 0.31430 0.03688 0.0
H522 H 0.09309 0.28098 0.07293 0.0
H523 H 0.98269 0.24096 0.05698 0.0
H524 H 0.03361 0.24328 0.01925 0.0
H525 H 0.95267 0.34487 0.07455 0.0
H526 H 0.93760 0.28139 0.08763 0.0
H527 H 0.99171 0.30028 0.15894 0.0
H528 H 0.06249 0.28916 0.14352 0.0
H529 H 0.95259 0.22714 0.12588 0.0
H530 H 0.99105 0.21348 0.16390 0.0
H531 H 0.12812 0.43894 0.11306 0.0
H532 H 0.01781 0.47549 0.12425 0.0
H533 H 0.03876 0.43640 0.15955 0.0
H534 H 0.12730 0.50432 0.14478 0.0
H535 H 0.07379 0.50507 0.18231 0.0
loop_
_geom_bond_atom_site_label_1
_geom_bond_atom_site_label_2
_geom_bond_distance
_geom_bond_site_symmetry_2
_ccdc_geom_bond_type
C0 O7 1.264 . A
C0 O8 1.256 . A
O1 C5 1.270 . A
O1 Cd9 2.304 . S
O2 C5 1.241 . A
O2 Cd9 2.579 . S
C3 O4 1.269 . S
C3 O6 1.241 . D
O4 Cd9 2.252 . S
O7 Cd9 2.608 . S
O8 Cd9 2.297 . S
C10 O17 1.264 . A
C10 O18 1.256 . A
O11 C15 1.270 . A
O11 Cd19 2.304 . S
O12 C15 1.241 . A
O12 Cd19 2.579 . S
C13 O14 1.269 . S
C13 O16 1.241 . D
O14 Cd19 2.252 . S
O17 Cd19 2.608 . S
O18 Cd19 2.297 . S
C20 O27 1.264 . A
C20 O28 1.256 . A
O21 C25 1.270 . A
O21 Cd29 2.304 . S
O22 C25 1.241 . A
O22 Cd29 2.579 . S
C23 O24 1.269 . S
C23 O26 1.241 . D
O24 Cd29 2.252 . S
O27 Cd29 2.608 . S
O28 Cd29 2.297 . S
C30 O37 1.264 . A
C30 O38 1.256 . A
O31 C35 1.270 . A
O31 Cd39 2.304 . S
O32 C35 1.241 . A
O32 Cd39 2.579 . S
C33 O34 1.269 . S
C33 O36 1.241 . D
O34 Cd39 2.252 . S
O37 Cd39 2.608 . S
O38 Cd39 2.297 . S
C40 O47 1.264 . A
C40 O48 1.256 . A
O41 C45 1.270 . A
O41 Cd49 2.304 . S
O42 C45 1.241 . A
O42 Cd49 2.579 . S
C43 O44 1.269 . S
C43 O46 1.241 . D
O44 Cd49 2.252 . S
O47 Cd49 2.608 . S
O48 Cd49 2.297 . S
C50 O57 1.264 . A
C50 O58 1.256 . A
O51 C55 1.270 . A
O51 Cd59 2.304 . S
O52 C55 1.241 . A
O52 Cd59 2.579 . S
C53 O54 1.269 . S
C53 O56 1.241 . D
O54 Cd59 2.252 . S
O57 Cd59 2.608 . S
O58 Cd59 2.297 . S
C60 O67 1.264 . A
C60 O68 1.256 . A
O61 C65 1.270 . A
O61 Cd69 2.304 . S
O62 C65 1.241 . A
O62 Cd69 2.579 . S
C63 O64 1.269 . S
C63 O66 1.241 . D
O64 Cd69 2.252 . S
O67 Cd69 2.608 . S
O68 Cd69 2.297 . S
C70 O77 1.264 . A
C70 O78 1.256 . A
O71 C75 1.270 . A
O71 Cd79 2.304 . S
O72 C75 1.241 . A
O72 Cd79 2.579 . S
C73 O74 1.269 . S
C73 O76 1.241 . D
O74 Cd79 2.252 . S
O77 Cd79 2.608 . S
O78 Cd79 2.297 . S
N80 C81 1.428 . S
C81 C82 1.546 . S
C82 C83 1.500 . S
C83 C84 1.443 . S
C84 C85 1.507 . S
C85 C86 1.457 . S
C86 N87 1.433 . S
C85 C88 1.504 . S
C85 C89 1.554 . S
C89 C90 1.473 . S
C83 N91 1.484 . S
N91 C92 1.417 . S
C92 N93 1.480 . S
N80 H94 1.043 . S
N80 H95 1.033 . S
C81 H96 1.101 . S
C81 H97 1.119 . S
C82 H98 1.079 . S
C82 H99 1.127 . S
C83 H100 1.125 . S
C84 H101 1.132 . S
C84 H102 1.124 . S
C86 H103 1.116 . S
C86 H104 1.144 . S
N87 H105 1.018 . S
N87 H106 1.079 . S
C88 H107 1.093 . S
C88 H108 1.111 . S
C89 H109 1.132 . S
C89 H110 1.112 . S
C90 H111 1.132 . S
C90 H112 1.140 . S
N91 H113 1.019 . S
C92 H114 1.096 . S
C92 H115 1.123 . S
N93 H116 1.023 . S
N93 H117 1.046 . S
N118 C119 1.428 . S
C119 C120 1.546 1_456 S
C120 C121 1.500 1_554 S
C121 C122 1.443 . S
C122 C123 1.507 . S
C123 C124 1.457 . S
C124 N125 1.433 . S
C123 C126 1.504 1_556 S
C123 C127 1.554 . S
C127 C128 1.473 . S
C121 N129 1.484 . S
N129 C130 1.417 1_556 S
C130 N131 1.480 1_654 S
N118 H132 1.043 . S
N118 H133 1.033 1_556 S
C119 H134 1.101 . S
C119 H135 1.119 1_556 S
C120 H136 1.079 . S
C120 H137 1.127 . S
C121 H138 1.125 . S
C122 H139 1.132 . S
C122 H140 1.124 . S
C124 H141 1.116 . S
C124 H142 1.144 . S
N125 H143 1.018 . S
N125 H144 1.079 . S
C126 H145 1.093 . S
C126 H146 1.111 . S
C127 H147 1.132 . S
C127 H148 1.112 . S
C128 H149 1.132 . S
C128 H150 1.140 . S
N129 H151 1.019 . S
C130 H152 1.096 . S
C130 H153 1.123 . S
N131 H154 1.036 . S
N131 H155 1.041 1_556 S
N156 C157 1.428 . S
C157 C158 1.546 . S
C158 C159 1.500 . S
C159 C160 1.443 . S
C160 C161 1.507 . S
C161 C162 1.457 . S
C162 N163 1.433 . S
C161 C164 1.504 . S
C161 C165 1.554 . S
C165 C166 1.473 . S
C159 N167 1.484 . S
N167 C168 1.417 . S
C168 N169 1.480 . S
N156 H170 1.043 . S
N156 H171 1.033 . S
C157 H172 1.101 . S
C157 H173 1.119 . S
C158 H174 1.079 . S
C158 H175 1.127 . S
C159 H176 1.125 . S
C160 H177 1.132 . S
C160 H178 1.124 . S
C162 H179 1.116 . S
C162 H180 1.144 . S
N163 H181 1.018 . S
N163 H182 1.079 . S
C164 H183 1.093 . S
C164 H184 1.111 . S
C165 H185 1.132 . S
C165 H186 1.112 . S
C166 H187 1.132 . S
C166 H188 1.140 . S
N167 H189 1.019 . S
C168 H190 1.096 . S
C168 H191 1.123 . S
N169 H192 1.023 . S
N169 H193 1.046 . S
N194 C195 1.428 . S
C195 C196 1.546 . S
C196 C197 1.500 . S
C197 C198 1.443 . S
C198 C199 1.507 . S
C199 C200 1.457 . S
C200 N201 1.433 . S
C199 C202 1.504 . S
C199 C203 1.554 . S
C203 C204 1.473 . S
C197 N205 1.484 . S
N205 C206 1.417 . S
C206 N207 1.480 . S
N194 H208 1.043 . S
N194 H209 1.033 . S
C195 H210 1.101 . S
C195 H211 1.119 . S
C196 H212 1.079 . S
C196 H213 1.127 . S
C197 H214 1.125 . S
C198 H215 1.132 . S
C198 H216 1.124 . S
C200 H217 1.116 . S
C200 H218 1.144 . S
N201 H219 1.018 . S
N201 H220 1.079 . S
C202 H221 1.093 . S
C202 H222 1.111 . S
C203 H223 1.132 . S
C203 H224 1.112 . S
C204 H225 1.132 . S
C204 H226 1.140 . S
N205 H227 1.019 . S
C206 H228 1.096 . S
C206 H229 1.123 . S
N207 H230 1.023 . S
N207 H231 1.046 . S
N232 C233 1.428 . S
C233 C234 1.546 . S
C234 C235 1.500 . S
C235 C236 1.443 . S
C236 C237 1.507 . S
C237 C238 1.457 . S
C238 N239 1.433 . S
C237 C240 1.504 . S
C237 C241 1.554 . S
C241 C242 1.473 . S
C235 N243 1.484 . S
N243 C244 1.417 . S
C244 N245 1.480 . S
N232 H246 1.043 . S
N232 H247 1.033 . S
C233 H248 1.101 . S
C233 H249 1.119 . S
C234 H250 1.079 . S
C234 H251 1.127 . S
C235 H252 1.125 . S
C236 H253 1.132 . S
C236 H254 1.124 . S
C238 H255 1.116 . S
C238 H256 1.144 . S
N239 H257 1.018 . S
N239 H258 1.079 . S
C240 H259 1.093 . S
C240 H260 1.111 . S
C241 H261 1.132 . S
C241 H262 1.112 . S
C242 H263 1.132 . S
C242 H264 1.140 . S
N243 H265 1.019 . S
C244 H266 1.096 . S
C244 H267 1.123 . S
N245 H268 1.023 . S
N245 H269 1.046 . S
N270 C271 1.428 . S
C271 C272 1.546 1_455 S
C272 C273 1.500 1_655 S
C273 C274 1.443 . S
C274 C275 1.507 . S
C275 C276 1.457 . S
C276 N277 1.433 . S
C275 C278 1.504 1_455 S
C275 C279 1.554 . S
C279 C280 1.473 . S
C273 N281 1.484 . S
N281 C282 1.417 . S
C282 N283 1.480 . S
N270 H284 1.043 . S
N270 H285 1.033 . S
C271 H286 1.101 . S
C271 H287 1.119 1_455 S
C272 H288 1.079 . S
C272 H289 1.127 . S
C273 H290 1.125 . S
C274 H291 1.132 . S
C274 H292 1.124 . S
C276 H293 1.116 . S
C276 H294 1.144 . S
N277 H295 1.018 . S
N277 H296 1.079 . S
C278 H297 1.093 . S
C278 H298 1.111 . S
C279 H299 1.132 . S
C279 H300 1.112 . S
C280 H301 1.132 . S
C280 H302 1.140 . S
N281 H303 1.019 . S
C282 H304 1.096 1_455 S
C282 H305 1.123 . S
N283 H306 1.023 . S
N283 H307 1.046 . S
N308 C309 1.428 . S
C309 C310 1.546 . S
C310 C311 1.500 . S
C311 C312 1.443 . S
C312 C313 1.507 . S
C313 C314 1.457 . S
C314 N315 1.433 . S
C313 C316 1.504 . S
C313 C317 1.554 . S
C317 C318 1.473 . S
C311 N319 1.484 . S
N319 C320 1.417 . S
C320 N321 1.480 . S
N308 H322 1.043 . S
N308 H323 1.033 . S
C309 H324 1.101 . S
C309 H325 1.119 . S
C310 H326 1.079 . S
C310 H327 1.127 . S
C311 H328 1.125 . S
C312 H329 1.132 . S
C312 H330 1.124 . S
C314 H331 1.116 . S
C314 H332 1.144 . S
N315 H333 1.018 . S
N315 H334 1.079 . S
C316 H335 1.093 . S
C316 H336 1.111 . S
C317 H337 1.132 . S
C317 H338 1.112 . S
C318 H339 1.132 . S
C318 H340 1.140 . S
N319 H341 1.019 . S
C320 H342 1.096 . S
C320 H343 1.123 . S
N321 H344 1.023 . S
N321 H345 1.046 . S
N346 C347 1.428 . S
C347 C348 1.546 . S
C348 C349 1.500 . S
C349 C350 1.443 . S
C350 C351 1.507 . S
C351 C352 1.457 . S
C352 N353 1.433 1_545 S
C351 C354 1.504 . S
C351 C355 1.554 . S
C355 C356 1.473 1_545 S
C349 N357 1.484 . S
N357 C358 1.417 . S
C358 N359 1.480 . S
N346 H360 1.043 . S
N346 H361 1.033 . S
C347 H362 1.101 . S
C347 H363 1.119 . S
C348 H364 1.079 . S
C348 H365 1.127 . S
C349 H366 1.125 . S
C350 H367 1.132 . S
C350 H368 1.124 . S
C352 H369 1.116 . S
C352 H370 1.144 . S
N353 H371 1.018 . S
N353 H372 1.079 . S
C354 H373 1.093 . S
C354 H374 1.111 1_545 S
C355 H375 1.132 . S
C355 H376 1.112 . S
C356 H377 1.132 . S
C356 H378 1.140 . S
N357 H379 1.019 . S
C358 H380 1.096 . S
C358 H381 1.123 . S
N359 H382 1.023 . S
N359 H383 1.046 . S
N384 C385 1.428 . S
C385 C386 1.546 1_565 S
C386 C387 1.500 1_545 S
C387 C388 1.443 1_565 S
C388 C389 1.507 . S
C389 C390 1.457 . S
C390 N391 1.433 . S
C389 C392 1.504 . S
C389 C393 1.554 1_554 S
C393 C394 1.473 . S
C387 N395 1.484 . S
N395 C396 1.417 . S
C396 N397 1.480 1_455 S
N384 H398 1.043 . S
N384 H399 1.033 . S
C385 H400 1.101 . S
C385 H401 1.119 . S
C386 H402 1.079 . S
C386 H403 1.127 . S
C387 H404 1.125 . S
C388 H405 1.132 . S
C388 H406 1.124 . S
C390 H407 1.116 . S
C390 H408 1.144 . S
N391 H409 1.018 . S
N391 H410 1.079 . S
C392 H411 1.093 . S
C392 H412 1.111 . S
C393 H413 1.132 . S
C393 H414 1.112 . S
C394 H415 1.132 . S
C394 H416 1.140 . S
N395 H417 1.019 . S
C396 H418 1.096 1_565 S
C396 H419 1.123 1_565 S
N397 H420 1.023 . S
N397 H421 1.046 . S
N422 C423 1.428 . S
C423 C424 1.546 . S
C424 C425 1.500 . S
C425 C426 1.443 . S
C426 C427 1.507 . S
C427 C428 1.457 1_545 S
C428 N429 1.433 . S
C427 C430 1.504 . S
C427 C431 1.554 . S
C431 C432 1.473 1_545 S
C425 N433 1.484 . S
N433 C434 1.417 . S
C434 N435 1.480 . S
N422 H436 1.043 . S
N422 H437 1.033 . S
C423 H438 1.101 . S
C423 H439 1.119 . S
C424 H440 1.079 . S
C424 H441 1.127 . S
C425 H442 1.125 . S
C426 H443 1.132 . S
C426 H444 1.124 . S
C428 H445 1.116 . S
C428 H446 1.144 . S
N429 H447 1.018 . S
N429 H448 1.079 . S
C430 H449 1.093 . S
C430 H450 1.111 1_545 S
C431 H451 1.132 . S
C431 H452 1.112 . S
C432 H453 1.132 . S
C432 H454 1.140 . S
N433 H455 1.019 . S
C434 H456 1.096 . S
C434 H457 1.123 . S
N435 H458 1.023 . S
N435 H459 1.046 . S
N460 C461 1.428 . S
C461 C462 1.546 . S
C462 C463 1.500 . S
C463 C464 1.443 . S
C464 C465 1.507 . S
C465 C466 1.457 . S
C466 N467 1.433 . S
C465 C468 1.504 . S
C465 C469 1.554 . S
C469 C470 1.473 . S
C463 N471 1.484 . S
N471 C472 1.417 . S
C472 N473 1.480 . S
N460 H474 1.043 . S
N460 H475 1.033 . S
C461 H476 1.101 . S
C461 H477 1.119 . S
C462 H478 1.079 . S
C462 H479 1.127 . S
C463 H480 1.125 . S
C464 H481 1.132 . S
C464 H482 1.124 . S
C466 H483 1.116 . S
C466 H484 1.144 . S
N467 H485 1.018 . S
N467 H486 1.079 . S
C468 H487 1.093 . S
C468 H488 1.111 . S
C469 H489 1.132 . S
C469 H490 1.112 . S
C470 H491 1.132 . S
C470 H492 1.140 . S
N471 H493 1.019 . S
C472 H494 1.096 . S
C472 H495 1.123 . S
N473 H496 1.023 . S
N473 H497 1.046 . S
N498 C499 1.428 . S
C499 C500 1.546 . S
C500 C501 1.500 . S
C501 C502 1.443 . S
C502 C503 1.507 . S
C503 C504 1.457 . S
C504 N505 1.433 . S
C503 C506 1.504 1_455 S
C503 C507 1.554 . S
C507 C508 1.473 1_455 S
C501 N509 1.484 . S
N509 C510 1.417 . S
C510 N511 1.480 . S
N498 H512 1.043 . S
N498 H513 1.033 . S
C499 H514 1.101 . S
C499 H515 1.119 . S
C500 H516 1.079 1_455 S
C500 H517 1.127 . S
C501 H518 1.125 . S
C502 H519 1.132 . S
C502 H520 1.124 . S
C504 H521 1.116 . S
C504 H522 1.144 . S
N505 H523 1.018 1_455 S
N505 H524 1.079 . S
C506 H525 1.093 . S
C506 H526 1.111 . S
C507 H527 1.132 1_455 S
C507 H528 1.112 . S
C508 H529 1.132 . S
C508 H530 1.140 . S
N509 H531 1.019 . S
C510 H532 1.096 . S
C510 H533 1.123 . S
N511 H534 1.023 . S
N511 H535 1.046 . S
C88 C3 1.144 . S
C90 C25 1.480 . S
C126 C23 1.281 . S
C128 C15 1.478 . S
C164 C30 1.241 . S
C166 C5 1.418 . S
C202 C35 1.218 . S
C204 C13 1.406 . S
C240 C33 1.375 . S
C242 C50 1.253 . S
C278 C0 1.169 . S
C280 C40 1.405 . S
C316 C53 1.389 . S
C318 C45 1.335 . S
C354 C63 1.161 . S
C356 C55 1.489 . S
C392 C70 1.263 . S
C394 C65 1.420 . S
C430 C75 1.313 . S
C432 C43 1.352 . S
C468 C10 1.401 . S
C470 C60 1.417 . S
C506 C20 1.349 . S
C508 C73 1.343 1_655 S
