# Generated by pormake.
# Topology sod, (4)-cn, num edge types: 1
# Building blocks:
#     Node 0, Type 0, BuildingBlock: N461, # of connection points: 4
#     Node 1, Type 0, BuildingBlock: N461, # of connection points: 4
#     Node 2, Type 0, BuildingBlock: N461, # of connection points: 4
#     Node 3, Type 0, BuildingBlock: N461, # of connection points: 4
#     Node 4, Type 0, BuildingBlock: N461, # of connection points: 4
#     Node 5, Type 0, BuildingBlock: N461, # of connection points: 4
#     Node 6, Type 0, BuildingBlock: N461, # of connection points: 4
#     Node 7, Type 0, BuildingBlock: N461, # of connection points: 4
#     Node 8, Type 0, BuildingBlock: N461, # of connection points: 4
#     Node 9, Type 0, BuildingBlock: N461, # of connection points: 4
#     Node 10, Type 0, BuildingBlock: N461, # of connection points: 4
#     Node 11, Type 0, BuildingBlock: N461, # of connection points: 4
#     Edge 12, Type (0, 0), BuildingBlock: O=CC1=CN([Fr])C(C=O)C(C=O)N1[Fr], # of connection points: 2
#     Edge 13, Type (0, 0), BuildingBlock: O=CC1=CN([Fr])C(C=O)C(C=O)N1[Fr], # of connection points: 2
#     Edge 14, Type (0, 0), BuildingBlock: O=CC1=CN([Fr])C(C=O)C(C=O)N1[Fr], # of connection points: 2
#     Edge 15, Type (0, 0), BuildingBlock: O=CC1=CN([Fr])C(C=O)C(C=O)N1[Fr], # of connection points: 2
#     Edge 16, Type (0, 0), BuildingBlock: O=CC1=CN([Fr])C(C=O)C(C=O)N1[Fr], # of connection points: 2
#     Edge 17, Type (0, 0), BuildingBlock: O=CC1=CN([Fr])C(C=O)C(C=O)N1[Fr], # of connection points: 2
#     Edge 18, Type (0, 0), BuildingBlock: O=CC1=CN([Fr])C(C=O)C(C=O)N1[Fr], # of connection points: 2
#     Edge 19, Type (0, 0), BuildingBlock: O=CC1=CN([Fr])C(C=O)C(C=O)N1[Fr], # of connection points: 2
#     Edge 20, Type (0, 0), BuildingBlock: O=CC1=CN([Fr])C(C=O)C(C=O)N1[Fr], # of connection points: 2
#     Edge 21, Type (0, 0), BuildingBlock: O=CC1=CN([Fr])C(C=O)C(C=O)N1[Fr], # of connection points: 2
#     Edge 22, Type (0, 0), BuildingBlock: O=CC1=CN([Fr])C(C=O)C(C=O)N1[Fr], # of connection points: 2
#     Edge 23, Type (0, 0), BuildingBlock: O=CC1=CN([Fr])C(C=O)C(C=O)N1[Fr], # of connection points: 2
#     Edge 24, Type (0, 0), BuildingBlock: O=CC1=CN([Fr])C(C=O)C(C=O)N1[Fr], # of connection points: 2
#     Edge 25, Type (0, 0), BuildingBlock: O=CC1=CN([Fr])C(C=O)C(C=O)N1[Fr], # of connection points: 2
#     Edge 26, Type (0, 0), BuildingBlock: O=CC1=CN([Fr])C(C=O)C(C=O)N1[Fr], # of connection points: 2
#     Edge 27, Type (0, 0), BuildingBlock: O=CC1=CN([Fr])C(C=O)C(C=O)N1[Fr], # of connection points: 2
#     Edge 28, Type (0, 0), BuildingBlock: O=CC1=CN([Fr])C(C=O)C(C=O)N1[Fr], # of connection points: 2
#     Edge 29, Type (0, 0), BuildingBlock: O=CC1=CN([Fr])C(C=O)C(C=O)N1[Fr], # of connection points: 2
#     Edge 30, Type (0, 0), BuildingBlock: O=CC1=CN([Fr])C(C=O)C(C=O)N1[Fr], # of connection points: 2
#     Edge 31, Type (0, 0), BuildingBlock: O=CC1=CN([Fr])C(C=O)C(C=O)N1[Fr], # of connection points: 2
#     Edge 32, Type (0, 0), BuildingBlock: O=CC1=CN([Fr])C(C=O)C(C=O)N1[Fr], # of connection points: 2
#     Edge 33, Type (0, 0), BuildingBlock: O=CC1=CN([Fr])C(C=O)C(C=O)N1[Fr], # of connection points: 2
#     Edge 34, Type (0, 0), BuildingBlock: O=CC1=CN([Fr])C(C=O)C(C=O)N1[Fr], # of connection points: 2
#     Edge 35, Type (0, 0), BuildingBlock: O=CC1=CN([Fr])C(C=O)C(C=O)N1[Fr], # of connection points: 2
# Relax obj value: 0.140
# Max RMSD: 0.185
# Mean RMSD: 0.181
data_O=CC1=CN([Fr])C(C=O)C(C=O)N1[Fr]_sod_N461
_symmetry_space_group_name_H-M    P1
_symmetry_Int_Tables_number       1
_symmetry_cell_setting            triclinic
loop_
_symmetry_equiv_pos_as_xyz
'x, y, z'
_cell_length_a     31.621
_cell_length_b     31.608
_cell_length_c     31.633
_cell_angle_alpha  90.449
_cell_angle_beta   90.105
_cell_angle_gamma  91.125
loop_
_atom_site_label
_atom_site_type_symbol
_atom_site_fract_x
_atom_site_fract_y
_atom_site_fract_z
_atom_type_partial_charge
O0 O 0.08550 0.53052 0.79562 0.0
O1 O 0.04786 0.47334 0.80902 0.0
C2 C 0.07952 0.49780 0.81603 0.0
O3 O 0.97724 0.54931 0.71044 0.0
O4 O 0.03763 0.58485 0.71516 0.0
O5 O 0.97710 0.54932 0.80700 0.0
O6 O 0.94332 0.48788 0.80010 0.0
C7 C 0.02748 0.44927 0.70113 0.0
Cd8 Cd 0.01613 0.51420 0.75833 0.0
O9 O 0.99299 0.44754 0.72122 0.0
O10 O 0.05513 0.47703 0.70818 0.0
C11 C 0.94799 0.52361 0.81714 0.0
C12 C 0.00211 0.57940 0.69918 0.0
O13 O 0.58486 0.03021 0.29595 0.0
O14 O 0.54717 0.97308 0.30944 0.0
C15 C 0.57879 0.99757 0.31648 0.0
O16 O 0.47696 0.04863 0.21022 0.0
O17 O 0.53732 0.08420 0.21506 0.0
O18 O 0.47641 0.04905 0.30679 0.0
O19 O 0.44267 0.98757 0.30000 0.0
C20 C 0.52725 0.94856 0.20156 0.0
Cd21 Cd 0.51565 0.01373 0.25843 0.0
O22 O 0.49268 0.94691 0.22151 0.0
O23 O 0.55486 0.97635 0.20861 0.0
C24 C 0.44726 0.02337 0.31692 0.0
C25 C 0.50187 0.07867 0.19895 0.0
O26 O 0.03036 0.43902 0.29546 0.0
O27 O 0.97391 0.47569 0.30910 0.0
C28 C 0.99772 0.44456 0.31600 0.0
O29 O 0.05143 0.54692 0.21024 0.0
O30 O 0.08577 0.48723 0.21480 0.0
O31 O 0.05127 0.54796 0.30681 0.0
O32 O 0.99052 0.58049 0.30016 0.0
C33 C 0.95044 0.49460 0.20131 0.0
Cd34 Cd 0.01548 0.50777 0.25826 0.0
O35 O 0.94935 0.52926 0.22142 0.0
O36 O 0.97764 0.46755 0.20824 0.0
C37 C 0.02612 0.57668 0.31706 0.0
C38 C 0.08104 0.52252 0.19885 0.0
O39 O 0.80129 0.52787 0.93802 0.0
O40 O 0.81437 0.47110 0.97463 0.0
C41 C 0.82154 0.49533 0.94348 0.0
O42 O 0.71608 0.54704 0.04620 0.0
O43 O 0.72104 0.58209 0.98653 0.0
O44 O 0.81269 0.54768 0.04679 0.0
O45 O 0.80544 0.48648 0.07936 0.0
C46 C 0.70629 0.44649 0.99404 0.0
Cd47 Cd 0.76384 0.51191 0.00689 0.0
O48 O 0.72635 0.44519 0.02858 0.0
O49 O 0.71351 0.47407 0.96697 0.0
C50 C 0.82268 0.52229 0.07545 0.0
C51 C 0.70500 0.57684 0.02185 0.0
O52 O 0.58510 0.99351 0.72169 0.0
O53 O 0.54851 0.04995 0.70823 0.0
C54 C 0.57966 0.02609 0.70122 0.0
O55 O 0.47692 0.97279 0.80709 0.0
O56 O 0.53659 0.93841 0.80234 0.0
O57 O 0.47625 0.97257 0.71052 0.0
O58 O 0.44372 0.03339 0.71736 0.0
C59 C 0.52921 0.07385 0.81611 0.0
Cd60 Cd 0.51625 0.00856 0.75906 0.0
O61 O 0.49463 0.07486 0.79608 0.0
O62 O 0.55626 0.04661 0.80907 0.0
C63 C 0.44759 0.99770 0.70038 0.0
C64 C 0.50126 0.94321 0.81837 0.0
O65 O 0.30014 0.02865 0.43702 0.0
O66 O 0.31311 0.97194 0.47377 0.0
C67 C 0.32032 0.99608 0.44256 0.0
O68 O 0.21496 0.04823 0.54515 0.0
O69 O 0.21999 0.08313 0.48539 0.0
O70 O 0.31157 0.04870 0.54575 0.0
O71 O 0.30420 0.98758 0.57847 0.0
C72 C 0.20498 0.94758 0.49323 0.0
Cd73 Cd 0.26266 0.01292 0.50593 0.0
O74 O 0.22504 0.94632 0.52778 0.0
O75 O 0.21226 0.97507 0.46609 0.0
C76 C 0.32151 0.02335 0.57447 0.0
C77 C 0.20393 0.07799 0.52073 0.0
O78 O 0.99584 0.72526 0.57957 0.0
O79 O 0.05253 0.71205 0.54249 0.0
C80 C 0.02838 0.70500 0.57382 0.0
O81 O 0.97643 0.81002 0.47168 0.0
O82 O 0.94150 0.80529 0.53161 0.0
O83 O 0.97585 0.71336 0.47093 0.0
O84 O 0.03696 0.72052 0.43789 0.0
C85 C 0.07701 0.82011 0.52307 0.0
Cd86 Cd 0.01165 0.76243 0.51064 0.0
O87 O 0.07826 0.79989 0.48849 0.0
O88 O 0.04951 0.81299 0.55035 0.0
C89 C 0.00119 0.70326 0.44205 0.0
C90 C 0.94668 0.82120 0.49627 0.0
O91 O 0.72599 0.99462 0.43686 0.0
O92 O 0.71301 0.05140 0.47435 0.0
C93 C 0.70575 0.02715 0.44281 0.0
O94 O 0.81158 0.97553 0.54477 0.0
O95 O 0.80643 0.94046 0.48456 0.0
O96 O 0.71496 0.97483 0.54532 0.0
O97 O 0.72230 0.03605 0.57884 0.0
C98 C 0.82115 0.07607 0.49417 0.0
Cd99 Cd 0.76367 0.01063 0.50599 0.0
O100 O 0.80120 0.07736 0.52872 0.0
O101 O 0.81385 0.04848 0.46667 0.0
C102 C 0.70506 0.00010 0.57437 0.0
C103 C 0.82260 0.94573 0.51997 0.0
O104 O 0.02982 0.29965 0.58139 0.0
O105 O 0.97307 0.31240 0.54423 0.0
C106 C 0.99728 0.31983 0.57564 0.0
O107 O 0.04906 0.21356 0.47325 0.0
O108 O 0.08408 0.21902 0.53328 0.0
O109 O 0.04965 0.31021 0.47284 0.0
O110 O 0.98848 0.30265 0.43963 0.0
C111 C 0.94855 0.20410 0.52438 0.0
Cd112 Cd 0.01390 0.26163 0.51229 0.0
O113 O 0.94725 0.22390 0.48986 0.0
O114 O 0.97610 0.21156 0.55174 0.0
C115 C 0.02426 0.31996 0.44394 0.0
C116 C 0.07884 0.20268 0.49787 0.0
O117 O 0.53064 0.79865 0.08254 0.0
O118 O 0.47395 0.81132 0.04524 0.0
C119 C 0.49807 0.81878 0.07672 0.0
O120 O 0.55030 0.71266 0.97440 0.0
O121 O 0.58516 0.71816 0.03452 0.0
O122 O 0.55070 0.80931 0.97404 0.0
O123 O 0.48963 0.80166 0.94068 0.0
C124 C 0.44968 0.70299 0.02528 0.0
Cd125 Cd 0.51496 0.76064 0.01338 0.0
O126 O 0.44843 0.72280 0.99077 0.0
O127 O 0.47715 0.71048 0.05271 0.0
C128 C 0.52537 0.81903 0.94508 0.0
C129 C 0.58005 0.70183 0.99990 0.0
O130 O 0.22703 0.49381 0.93570 0.0
O131 O 0.21413 0.55052 0.97332 0.0
C132 C 0.20685 0.52636 0.94172 0.0
O133 O 0.31253 0.47430 0.04360 0.0
O134 O 0.30735 0.43938 0.98330 0.0
O135 O 0.21591 0.47377 0.04410 0.0
O136 O 0.22334 0.53490 0.07778 0.0
C137 C 0.32230 0.57494 0.99325 0.0
Cd138 Cd 0.26470 0.50958 0.00488 0.0
O139 O 0.30234 0.57619 0.02780 0.0
O140 O 0.31497 0.54744 0.96568 0.0
C141 C 0.20604 0.49912 0.07321 0.0
C142 C 0.32350 0.44454 0.01873 0.0
O143 O 0.49666 0.22413 0.07856 0.0
O144 O 0.55341 0.21082 0.04162 0.0
C145 C 0.52916 0.20382 0.07289 0.0
O146 O 0.47766 0.30893 0.97062 0.0
O147 O 0.44258 0.30427 0.03047 0.0
O148 O 0.47690 0.21227 0.96988 0.0
O149 O 0.53810 0.21932 0.93698 0.0
C150 C 0.57814 0.31884 0.02225 0.0
Cd151 Cd 0.51270 0.26128 0.00967 0.0
O152 O 0.57943 0.29862 0.98767 0.0
O153 O 0.55056 0.31177 0.04946 0.0
C154 C 0.50229 0.20213 0.94106 0.0
C155 C 0.44787 0.32017 0.99514 0.0
O156 O 0.06326 0.42734 0.54303 0.0
C157 C 0.04144 0.39513 0.55225 0.0
C158 C 0.02350 0.39348 0.59501 0.0
C159 C 0.03564 0.42200 0.62352 0.0
N160 N 0.02401 0.41472 0.66582 0.0
C161 C 0.00174 0.38124 0.67889 0.0
C162 C 0.99391 0.37581 0.72430 0.0
O163 O 0.98925 0.40971 0.74202 0.0
C164 C 0.98769 0.34965 0.65084 0.0
C165 C 0.97418 0.30835 0.66245 0.0
O166 O 0.98493 0.28076 0.63840 0.0
N167 N 0.99990 0.35682 0.60821 0.0
H168 H 0.03456 0.37099 0.52937 0.0
H169 H 0.06080 0.45994 0.60914 0.0
H170 H 0.99056 0.37569 0.72460 0.0
H171 H 0.98649 0.34585 0.73922 0.0
H172 H 0.96252 0.31167 0.66513 0.0
H173 H 0.95990 0.30026 0.69239 0.0
O174 O 0.57301 0.02940 0.47342 0.0
C175 C 0.61193 0.03094 0.46568 0.0
C176 C 0.62474 0.02512 0.42146 0.0
C177 C 0.59632 0.01261 0.39310 0.0
N178 N 0.61122 0.99990 0.35318 0.0
C179 C 0.65175 0.99990 0.34221 0.0
C180 C 0.66353 0.98276 0.30048 0.0
O181 O 0.63714 0.99092 0.27386 0.0
C182 C 0.68377 0.01215 0.37026 0.0
C183 C 0.72712 0.00245 0.36601 0.0
O184 O 0.74471 0.99461 0.39883 0.0
N185 N 0.66895 0.02509 0.41049 0.0
H186 H 0.63453 0.03818 0.48987 0.0
H187 H 0.55047 0.01286 0.40513 0.0
H188 H 0.66517 0.98531 0.29897 0.0
H189 H 0.69440 0.97078 0.29253 0.0
H190 H 0.72965 0.01193 0.35832 0.0
H191 H 0.74297 0.99720 0.33626 0.0
O192 O 0.12626 0.66404 0.37332 0.0
C193 C 0.10129 0.63646 0.35825 0.0
C194 C 0.05612 0.64110 0.36751 0.0
C195 C 0.04421 0.66959 0.39563 0.0
N196 N 0.00190 0.66763 0.40938 0.0
C197 C 0.97332 0.63918 0.39601 0.0
C198 C 0.93085 0.63870 0.41476 0.0
O199 O 0.91952 0.67429 0.42343 0.0
C200 C 0.98328 0.60801 0.36635 0.0
C201 C 0.95936 0.57033 0.35876 0.0
O202 O 0.98027 0.53949 0.35198 0.0
N203 N 0.02583 0.60983 0.35240 0.0
H204 H 0.11221 0.61192 0.33794 0.0
H205 H 0.07621 0.70187 0.41096 0.0
H206 H 0.92875 0.63913 0.41217 0.0
H207 H 0.90945 0.61151 0.41486 0.0
H208 H 0.95135 0.57568 0.35096 0.0
H209 H 0.92561 0.56701 0.36332 0.0
O210 O 0.38450 0.89603 0.36407 0.0
C211 C 0.36737 0.92143 0.38913 0.0
C212 C 0.37448 0.96677 0.38144 0.0
C213 C 0.40281 0.97897 0.35317 0.0
N214 N 0.41436 0.02220 0.35243 0.0
C215 C 0.39872 0.05139 0.37816 0.0
C216 C 0.41530 0.09506 0.37613 0.0
O217 O 0.42444 0.10479 0.34009 0.0
C218 C 0.36868 0.04118 0.40891 0.0
C219 C 0.35877 0.06672 0.44440 0.0
O220 O 0.35213 0.04731 0.47648 0.0
N221 N 0.35694 0.99769 0.40979 0.0
H222 H 0.34690 0.91056 0.41369 0.0
H223 H 0.42069 0.94630 0.32395 0.0
H224 H 0.41262 0.09693 0.37544 0.0
H225 H 0.41351 0.11803 0.40163 0.0
H226 H 0.35074 0.07377 0.43817 0.0
H227 H 0.36153 0.10084 0.44533 0.0
O228 O 0.91548 0.42284 0.43096 0.0
C229 C 0.93680 0.43108 0.39851 0.0
C230 C 0.97245 0.40348 0.38911 0.0
C231 C 0.98445 0.37566 0.41747 0.0
N232 N 0.02326 0.35562 0.41073 0.0
C233 C 0.04848 0.36280 0.37790 0.0
C234 C 0.08951 0.34192 0.37578 0.0
O235 O 0.08748 0.30652 0.39059 0.0
C236 C 0.03817 0.39168 0.34653 0.0
C237 C 0.06706 0.40975 0.31728 0.0
O238 O 0.06123 0.44653 0.30967 0.0
N239 N 0.99990 0.41194 0.35316 0.0
H240 H 0.92813 0.45579 0.37763 0.0
H241 H 0.95623 0.36729 0.45466 0.0
H242 H 0.08943 0.34015 0.37290 0.0
H243 H 0.11639 0.35324 0.35762 0.0
H244 H 0.06632 0.40011 0.30929 0.0
H245 H 0.09526 0.39463 0.30595 0.0
O246 O 0.63395 0.64883 0.12501 0.0
C247 C 0.65309 0.62554 0.09938 0.0
C248 C 0.64879 0.63520 0.05426 0.0
C249 C 0.62083 0.66316 0.04207 0.0
N250 N 0.61208 0.66562 0.99851 0.0
C251 C 0.62998 0.64181 0.96902 0.0
C252 C 0.61620 0.64543 0.92485 0.0
O253 O 0.60713 0.68164 0.91639 0.0
C254 C 0.65981 0.61152 0.97919 0.0
C255 C 0.67191 0.57759 0.95260 0.0
O256 O 0.67778 0.54479 0.97076 0.0
N257 N 0.66874 0.60891 0.02300 0.0
H258 H 0.67321 0.60112 0.11004 0.0
H259 H 0.60041 0.69023 0.07509 0.0
H260 H 0.61899 0.64629 0.92314 0.0
H261 H 0.61987 0.62110 0.90089 0.0
H262 H 0.68029 0.58441 0.94625 0.0
H263 H 0.67136 0.57822 0.91846 0.0
O264 O 0.67495 0.36317 0.11648 0.0
C265 C 0.64509 0.35135 0.09271 0.0
C266 C 0.64687 0.36514 0.04852 0.0
C267 C 0.67557 0.39375 0.03707 0.0
N268 N 0.67119 0.41186 0.99681 0.0
C269 C 0.64028 0.40214 0.96973 0.0
C270 C 0.63758 0.42522 0.92973 0.0
O271 O 0.67254 0.43423 0.91608 0.0
C272 C 0.60871 0.37227 0.97933 0.0
C273 C 0.56920 0.36802 0.95836 0.0
O274 O 0.53974 0.35979 0.98125 0.0
N275 N 0.61296 0.35393 0.01982 0.0
H276 H 0.62058 0.33054 0.10365 0.0
H277 H 0.71062 0.40498 0.06739 0.0
H278 H 0.63775 0.42285 0.92732 0.0
H279 H 0.60902 0.42814 0.91109 0.0
H280 H 0.57361 0.36096 0.94908 0.0
H281 H 0.56369 0.37613 0.92572 0.0
O282 O 0.31706 0.98372 0.72459 0.0
C283 C 0.35586 0.98195 0.71661 0.0
C284 C 0.37038 0.00010 0.67665 0.0
C285 C 0.34228 0.01249 0.64842 0.0
N286 N 0.35717 0.02257 0.60773 0.0
C287 C 0.39741 0.02085 0.59593 0.0
C288 C 0.40865 0.02951 0.55176 0.0
O289 O 0.38639 0.05659 0.53679 0.0
C290 C 0.42908 0.00854 0.62379 0.0
C291 C 0.46979 0.99489 0.61180 0.0
O292 O 0.48310 0.96617 0.63255 0.0
N293 N 0.41427 0.99836 0.66479 0.0
H294 H 0.37757 0.96932 0.73881 0.0
H295 H 0.29676 0.01455 0.66138 0.0
H296 H 0.41086 0.03210 0.55191 0.0
H297 H 0.43702 0.01860 0.53630 0.0
H298 H 0.47464 0.00645 0.61092 0.0
H299 H 0.48635 0.00493 0.58366 0.0
O300 O 0.07805 0.71080 0.70102 0.0
C301 C 0.06883 0.70770 0.66250 0.0
C302 C 0.03750 0.67491 0.65030 0.0
C303 C 0.02508 0.64654 0.67836 0.0
N304 N 0.00141 0.61128 0.66346 0.0
C305 C 0.99080 0.60469 0.62325 0.0
C306 C 0.96835 0.56529 0.61120 0.0
O307 O 0.94405 0.55373 0.63878 0.0
C308 C 0.00264 0.63309 0.59162 0.0
C309 C 0.00301 0.62382 0.54773 0.0
O310 O 0.03241 0.63947 0.52880 0.0
N311 N 0.02647 0.66864 0.60645 0.0
H312 H 0.08169 0.72927 0.63993 0.0
H313 H 0.03688 0.65365 0.72385 0.0
H314 H 0.96547 0.56627 0.60979 0.0
H315 H 0.96801 0.55167 0.57967 0.0
H316 H 0.99089 0.62607 0.54610 0.0
H317 H 0.98237 0.60090 0.53221 0.0
O318 O 0.54438 0.96811 0.58911 0.0
C319 C 0.55432 0.98749 0.62257 0.0
C320 C 0.59816 0.00327 0.62633 0.0
C321 C 0.62645 0.99154 0.59810 0.0
N322 N 0.66929 0.00010 0.60713 0.0
C323 C 0.68306 0.02027 0.64199 0.0
C324 C 0.72878 0.02561 0.64908 0.0
O325 O 0.74756 0.03150 0.61604 0.0
C326 C 0.65530 0.03371 0.67339 0.0
C327 C 0.66684 0.04412 0.71556 0.0
O328 O 0.64148 0.03284 0.74183 0.0
N329 N 0.61213 0.02456 0.66446 0.0
H330 H 0.53139 0.99396 0.64632 0.0
H331 H 0.61127 0.96942 0.55861 0.0
H332 H 0.72931 0.02894 0.64938 0.0
H333 H 0.74349 0.03048 0.67973 0.0
H334 H 0.67038 0.05584 0.71291 0.0
H335 H 0.69750 0.05646 0.72519 0.0
O336 O 0.96832 0.46688 0.06848 0.0
C337 C 0.96391 0.47327 0.10742 0.0
C338 C 0.92261 0.48819 0.12175 0.0
C339 C 0.89440 0.50005 0.09357 0.0
N340 N 0.85874 0.52146 0.10859 0.0
C341 C 0.85163 0.53048 0.14902 0.0
C342 C 0.81459 0.55540 0.16050 0.0
O343 O 0.78466 0.54719 0.13742 0.0
C344 C 0.87982 0.51908 0.18079 0.0
C345 C 0.88120 0.53662 0.22214 0.0
O346 O 0.91638 0.54202 0.23626 0.0
N347 N 0.91577 0.49752 0.16584 0.0
H348 H 0.98842 0.46621 0.12932 0.0
H349 H 0.90210 0.49004 0.04783 0.0
H350 H 0.81281 0.55344 0.16260 0.0
H351 H 0.81162 0.57361 0.18946 0.0
H352 H 0.87221 0.52904 0.22656 0.0
H353 H 0.85429 0.54919 0.23867 0.0
O354 O 0.41314 0.84652 0.18466 0.0
C355 C 0.43334 0.83997 0.15120 0.0
C356 C 0.47521 0.86052 0.14751 0.0
C357 C 0.48725 0.88930 0.17580 0.0
N358 N 0.52377 0.91379 0.16683 0.0
C359 C 0.54680 0.90988 0.13198 0.0
C360 C 0.58270 0.93915 0.12498 0.0
O361 O 0.60032 0.94863 0.15805 0.0
C362 C 0.53628 0.88026 0.10052 0.0
C363 C 0.55131 0.88119 0.05836 0.0
O364 O 0.52537 0.87077 0.03206 0.0
N365 N 0.49954 0.85553 0.10938 0.0
H366 H 0.42147 0.81878 0.12740 0.0
H367 H 0.46150 0.89401 0.21528 0.0
H368 H 0.58539 0.93718 0.12468 0.0
H369 H 0.59622 0.94629 0.09435 0.0
H370 H 0.56197 0.87548 0.06101 0.0
H371 H 0.58144 0.89463 0.04878 0.0
O372 O 0.08257 0.41279 0.14865 0.0
C373 C 0.08232 0.44933 0.16448 0.0
C374 C 0.11052 0.48132 0.14544 0.0
C375 C 0.13890 0.46955 0.11732 0.0
N376 N 0.17030 0.49950 0.10591 0.0
C377 C 0.17327 0.53861 0.12148 0.0
C378 C 0.20909 0.56605 0.10912 0.0
O379 O 0.21935 0.55965 0.07260 0.0
C380 C 0.14459 0.55356 0.15130 0.0
C381 C 0.15128 0.58949 0.17772 0.0
O382 O 0.13806 0.58551 0.21326 0.0
N383 N 0.11291 0.52354 0.16290 0.0
H384 H 0.06107 0.45725 0.18932 0.0
H385 H 0.13588 0.42546 0.09951 0.0
H386 H 0.20770 0.56876 0.10773 0.0
H387 H 0.22075 0.59305 0.12730 0.0
H388 H 0.14753 0.59763 0.16916 0.0
H389 H 0.17074 0.61670 0.16964 0.0
O390 O 0.95553 0.41885 0.87995 0.0
C391 C 0.95289 0.45306 0.86032 0.0
C392 C 0.92101 0.48295 0.87499 0.0
C393 C 0.89282 0.47071 0.90339 0.0
N394 N 0.85827 0.49723 0.91062 0.0
C395 C 0.85219 0.53356 0.89088 0.0
C396 C 0.81345 0.55711 0.89920 0.0
O397 O 0.80239 0.55369 0.93586 0.0
C398 C 0.88044 0.54879 0.86046 0.0
C399 C 0.87142 0.58017 0.83019 0.0
O400 O 0.88639 0.57387 0.79570 0.0
N401 N 0.91527 0.52221 0.85306 0.0
H402 H 0.97425 0.46091 0.83540 0.0
H403 H 0.89935 0.42974 0.92588 0.0
H404 H 0.81452 0.56013 0.90033 0.0
H405 H 0.80002 0.57996 0.87792 0.0
H406 H 0.87399 0.58974 0.83792 0.0
H407 H 0.84913 0.60526 0.83474 0.0
O408 O 0.48247 0.97025 0.95224 0.0
C409 C 0.48502 0.96375 0.91314 0.0
C410 C 0.49531 0.92074 0.89923 0.0
C411 C 0.50735 0.89276 0.92741 0.0
N412 N 0.52446 0.85482 0.91212 0.0
C413 C 0.52928 0.84535 0.87144 0.0
C414 C 0.55007 0.80589 0.85947 0.0
O415 O 0.54162 0.77762 0.88413 0.0
C416 C 0.51738 0.87313 0.83965 0.0
C417 C 0.53124 0.87141 0.79711 0.0
O418 O 0.53811 0.90551 0.78139 0.0
N419 N 0.50014 0.91138 0.85487 0.0
H420 H 0.47801 0.98791 0.89099 0.0
H421 H 0.50206 0.90310 0.97344 0.0
H422 H 0.54780 0.80419 0.85758 0.0
H423 H 0.56535 0.80027 0.82937 0.0
H424 H 0.52262 0.86288 0.79360 0.0
H425 H 0.54013 0.84287 0.78066 0.0
O426 O 0.13981 0.62641 0.86716 0.0
C427 C 0.15793 0.60103 0.89117 0.0
C428 C 0.15154 0.55569 0.88225 0.0
C429 C 0.12287 0.54332 0.85407 0.0
N430 N 0.11215 0.49990 0.85223 0.0
C431 C 0.12886 0.47070 0.87683 0.0
C432 C 0.11308 0.42677 0.87376 0.0
O433 O 0.10340 0.41735 0.83759 0.0
C434 C 0.15932 0.48108 0.90738 0.0
C435 C 0.17042 0.45527 0.94194 0.0
O436 O 0.17733 0.47437 0.97448 0.0
N437 N 0.17023 0.52475 0.90937 0.0
H438 H 0.17868 0.61196 0.91571 0.0
H439 H 0.10379 0.57601 0.82613 0.0
H440 H 0.11578 0.42496 0.87297 0.0
H441 H 0.11582 0.40351 0.89853 0.0
H442 H 0.17847 0.44847 0.93538 0.0
H443 H 0.16834 0.42111 0.94190 0.0
O444 O 0.45231 0.20674 0.81350 0.0
C445 C 0.46139 0.20423 0.85203 0.0
C446 C 0.49185 0.17200 0.86417 0.0
C447 C 0.50357 0.14344 0.83603 0.0
N448 N 0.52630 0.10867 0.85085 0.0
C449 C 0.53668 0.10271 0.89106 0.0
C450 C 0.55809 0.06375 0.90301 0.0
O451 O 0.58213 0.05217 0.87543 0.0
C452 C 0.52554 0.13135 0.92276 0.0
C453 C 0.52486 0.12262 0.96662 0.0
O454 O 0.49583 0.13812 0.98556 0.0
N455 N 0.50265 0.16641 0.90802 0.0
H456 H 0.44906 0.22592 0.87465 0.0
H457 H 0.49202 0.14983 0.79054 0.0
H458 H 0.56099 0.06478 0.90443 0.0
H459 H 0.55802 0.05051 0.93450 0.0
H460 H 0.53704 0.12505 0.96828 0.0
H461 H 0.54489 0.10015 0.98210 0.0
O462 O 0.53319 0.19816 0.23179 0.0
C463 C 0.51752 0.16271 0.22170 0.0
C464 C 0.52002 0.15016 0.17700 0.0
C465 C 0.53259 0.17821 0.14868 0.0
N466 N 0.52696 0.16746 0.10574 0.0
C467 C 0.50992 0.13117 0.09188 0.0
C468 C 0.50323 0.12476 0.04630 0.0
O469 O 0.53127 0.14167 0.02580 0.0
C470 C 0.49583 0.09985 0.11966 0.0
C471 C 0.46763 0.06600 0.10907 0.0
O472 O 0.44232 0.05719 0.13627 0.0
N473 N 0.50143 0.11050 0.16294 0.0
H474 H 0.50480 0.14179 0.24494 0.0
H475 H 0.55186 0.21930 0.16396 0.0
H476 H 0.50498 0.12200 0.04551 0.0
H477 H 0.48050 0.10254 0.03254 0.0
H478 H 0.47654 0.05872 0.10449 0.0
H479 H 0.46462 0.05185 0.07799 0.0
O480 O 0.79104 0.81961 0.51143 0.0
C481 C 0.80106 0.85724 0.52041 0.0
C482 C 0.84423 0.87147 0.50991 0.0
C483 C 0.87221 0.84347 0.49753 0.0
N484 N 0.91485 0.85696 0.49551 0.0
C485 C 0.92873 0.89579 0.50518 0.0
C486 C 0.97438 0.90530 0.50444 0.0
O487 O 0.99187 0.88575 0.47640 0.0
C488 C 0.90129 0.92726 0.51853 0.0
C489 C 0.91360 0.96506 0.53998 0.0
O490 O 0.88959 0.97591 0.56743 0.0
N491 N 0.85833 0.91385 0.52062 0.0
H492 H 0.77855 0.87848 0.53324 0.0
H493 H 0.85690 0.79952 0.48652 0.0
H494 H 0.97476 0.90781 0.50223 0.0
H495 H 0.98977 0.93103 0.52172 0.0
H496 H 0.91650 0.97124 0.52955 0.0
H497 H 0.94394 0.98097 0.53658 0.0
O498 O 0.85065 0.10033 0.61176 0.0
C499 C 0.84053 0.09415 0.57380 0.0
C500 C 0.86674 0.11519 0.54164 0.0
C501 C 0.89534 0.14399 0.55341 0.0
N502 N 0.91403 0.16893 0.52155 0.0
C503 C 0.90485 0.16542 0.48065 0.0
C504 C 0.92450 0.19513 0.45073 0.0
O505 O 0.96049 0.20468 0.46126 0.0
C506 C 0.87502 0.13583 0.46556 0.0
C507 C 0.85502 0.13709 0.42549 0.0
O508 O 0.81815 0.12648 0.42563 0.0
N509 N 0.85611 0.11064 0.49750 0.0
H510 H 0.81525 0.07293 0.56525 0.0
H511 H 0.90597 0.14824 0.59950 0.0
H512 H 0.92615 0.19320 0.44853 0.0
H513 H 0.91173 0.20255 0.41992 0.0
H514 H 0.86433 0.13150 0.41949 0.0
H515 H 0.86889 0.15091 0.39750 0.0
O516 O 0.06374 0.95180 0.55916 0.0
C517 C 0.06653 0.91317 0.55037 0.0
C518 C 0.10668 0.89908 0.53234 0.0
C519 C 0.13538 0.92750 0.52048 0.0
N520 N 0.16963 0.91316 0.49627 0.0
C521 C 0.17496 0.87314 0.48461 0.0
C522 C 0.21059 0.86253 0.45702 0.0
O523 O 0.24158 0.88470 0.46478 0.0
C524 C 0.14613 0.84116 0.49581 0.0
C525 C 0.14264 0.80083 0.47610 0.0
O526 O 0.10683 0.78753 0.47194 0.0
N527 N 0.11159 0.85542 0.52019 0.0
H528 H 0.04156 0.89124 0.55759 0.0
H529 H 0.12970 0.97278 0.53345 0.0
H530 H 0.21236 0.86029 0.45876 0.0
H531 H 0.21185 0.83456 0.43708 0.0
H532 H 0.15173 0.79585 0.48289 0.0
H533 H 0.16843 0.78461 0.46111 0.0
O534 O 0.20764 0.23077 0.49306 0.0
C535 C 0.16916 0.22153 0.48806 0.0
C536 C 0.15450 0.17991 0.50304 0.0
C537 C 0.18248 0.15194 0.51517 0.0
N538 N 0.16788 0.11013 0.52162 0.0
C539 C 0.12803 0.09701 0.51634 0.0
C540 C 0.11719 0.05194 0.52141 0.0
O541 O 0.13838 0.03605 0.54900 0.0
C542 C 0.09651 0.12450 0.50359 0.0
C543 C 0.05676 0.11194 0.48639 0.0
O544 O 0.04447 0.13403 0.45815 0.0
N545 N 0.11104 0.16663 0.49705 0.0
H546 H 0.14769 0.24374 0.47535 0.0
H547 H 0.22757 0.16638 0.52124 0.0
H548 H 0.11487 0.05184 0.52385 0.0
H549 H 0.08969 0.03618 0.50759 0.0
H550 H 0.05139 0.11015 0.49750 0.0
H551 H 0.04026 0.08259 0.49346 0.0
O552 O 0.46725 0.57095 0.05267 0.0
C553 C 0.46311 0.60982 0.04645 0.0
C554 C 0.42180 0.62361 0.03106 0.0
C555 C 0.39326 0.59501 0.01867 0.0
N556 N 0.35754 0.60949 0.99688 0.0
C557 C 0.35068 0.64980 0.98800 0.0
C558 C 0.31353 0.66067 0.96267 0.0
O559 O 0.28348 0.63736 0.97034 0.0
C560 C 0.37923 0.68198 0.99990 0.0
C561 C 0.38081 0.72320 0.98267 0.0
O562 O 0.41606 0.73763 0.97783 0.0
N563 N 0.41524 0.66758 0.02190 0.0
H564 H 0.48785 0.63205 0.05395 0.0
H565 H 0.40066 0.54940 0.02852 0.0
H566 H 0.31178 0.66278 0.96462 0.0
H567 H 0.31065 0.68944 0.94459 0.0
H568 H 0.37192 0.72762 0.99015 0.0
H569 H 0.35393 0.73937 0.96984 0.0
O570 O 0.48575 0.44556 0.02121 0.0
C571 C 0.47563 0.40840 0.01051 0.0
C572 C 0.43033 0.39862 0.00524 0.0
C573 C 0.40225 0.42654 0.01758 0.0
N574 N 0.35962 0.41295 0.01941 0.0
C575 C 0.34585 0.37412 0.00960 0.0
C576 C 0.30093 0.36299 0.01540 0.0
O577 O 0.27847 0.39284 0.00786 0.0
C578 C 0.37341 0.34274 0.99628 0.0
C579 C 0.36416 0.29869 0.99613 0.0
O580 O 0.39338 0.27697 0.00628 0.0
N581 N 0.41635 0.35624 0.99438 0.0
H582 H 0.49902 0.38551 0.00359 0.0
H583 H 0.41743 0.47048 0.02874 0.0
H584 H 0.29984 0.36201 0.01235 0.0
H585 H 0.28854 0.33105 0.01923 0.0
H586 H 0.35832 0.29876 0.98510 0.0
H587 H 0.33289 0.28476 0.99242 0.0
loop_
_geom_bond_atom_site_label_1
_geom_bond_atom_site_label_2
_geom_bond_distance
_geom_bond_site_symmetry_2
_ccdc_geom_bond_type
O0 C2 1.235 . A
O0 Cd8 2.531 . S
O1 C2 1.271 . A
O1 Cd8 2.307 . S
O3 Cd8 2.261 1_655 S
O3 C12 1.275 1_655 S
O4 C12 1.239 . D
O5 Cd8 2.272 1_655 S
O5 C11 1.260 . S
O6 C11 1.254 . D
C7 O9 1.264 1_455 A
C7 O10 1.245 . A
Cd8 O9 2.500 1_455 S
Cd8 O10 2.335 . S
O13 C15 1.235 1_545 A
O13 Cd21 2.531 . S
O14 C15 1.271 . A
O14 Cd21 2.307 1_565 S
O16 Cd21 2.261 . S
O16 C25 1.275 . S
O17 C25 1.239 . D
O18 Cd21 2.272 . S
O18 C24 1.260 . S
O19 C24 1.254 1_565 D
C20 O22 1.264 . A
C20 O23 1.245 . A
Cd21 O22 2.500 1_545 S
Cd21 O23 2.335 1_545 S
O26 C28 1.235 1_455 A
O26 Cd34 2.531 . S
O27 C28 1.271 . A
O27 Cd34 2.307 1_655 S
O29 Cd34 2.261 . S
O29 C38 1.275 . S
O30 C38 1.239 . D
O31 Cd34 2.272 . S
O31 C37 1.260 . S
O32 C37 1.254 1_655 D
C33 O35 1.264 . A
C33 O36 1.245 . A
Cd34 O35 2.500 1_455 S
Cd34 O36 2.335 1_455 S
O39 C41 1.235 . A
O39 Cd47 2.531 1_556 S
O40 C41 1.271 . A
O40 Cd47 2.307 1_556 S
O42 Cd47 2.261 . S
O42 C51 1.275 . S
O43 C51 1.239 1_556 D
O44 Cd47 2.272 . S
O44 C50 1.260 . S
O45 C50 1.254 . D
C46 O48 1.264 1_556 A
C46 O49 1.245 . A
Cd47 O48 2.500 . S
Cd47 O49 2.335 1_554 S
O52 C54 1.235 1_565 A
O52 Cd60 2.531 1_565 S
O53 C54 1.271 . A
O53 Cd60 2.307 . S
O55 Cd60 2.261 1_565 S
O55 C64 1.275 . S
O56 C64 1.239 . D
O57 Cd60 2.272 1_565 S
O57 C63 1.260 . S
O58 C63 1.254 1_545 D
C59 O61 1.264 . A
C59 O62 1.245 . A
Cd60 O61 2.500 . S
Cd60 O62 2.335 . S
O65 C67 1.235 1_545 A
O65 Cd73 2.531 . S
O66 C67 1.271 . A
O66 Cd73 2.307 1_565 S
O68 Cd73 2.261 . S
O68 C77 1.275 . S
O69 C77 1.239 . D
O70 Cd73 2.272 . S
O70 C76 1.260 . S
O71 C76 1.254 1_565 D
C72 O74 1.264 . A
C72 O75 1.245 . A
Cd73 O74 2.500 1_545 S
Cd73 O75 2.335 1_545 S
O78 C80 1.235 1_655 A
O78 Cd86 2.531 1_655 S
O79 C80 1.271 . A
O79 Cd86 2.307 . S
O81 Cd86 2.261 1_655 S
O81 C90 1.275 . S
O82 C90 1.239 . D
O83 Cd86 2.272 1_655 S
O83 C89 1.260 1_655 S
O84 C89 1.254 . D
C85 O87 1.264 . A
C85 O88 1.245 . A
Cd86 O87 2.500 . S
Cd86 O88 2.335 . S
O91 C93 1.235 1_565 A
O91 Cd99 2.531 1_565 S
O92 C93 1.271 . A
O92 Cd99 2.307 . S
O94 Cd99 2.261 1_565 S
O94 C103 1.275 . S
O95 C103 1.239 . D
O96 Cd99 2.272 1_565 S
O96 C102 1.257 1_565 S
O97 C102 1.257 . D
C98 O100 1.264 . A
C98 O101 1.245 . A
Cd99 O100 2.500 . S
Cd99 O101 2.335 . S
O104 C106 1.235 1_455 A
O104 Cd112 2.531 . S
O105 C106 1.271 . A
O105 Cd112 2.307 1_655 S
O107 Cd112 2.261 . S
O107 C116 1.275 . S
O108 C116 1.239 . D
O109 Cd112 2.272 . S
O109 C115 1.260 . S
O110 C115 1.254 1_655 D
C111 O113 1.264 . A
C111 O114 1.245 . A
Cd112 O113 2.500 1_455 S
Cd112 O114 2.335 1_455 S
O117 C119 1.235 . A
O117 Cd125 2.531 . S
O118 C119 1.271 . A
O118 Cd125 2.307 . S
O120 Cd125 2.261 1_556 S
O120 C129 1.291 . S
O121 C129 1.216 1_554 D
O122 Cd125 2.272 1_556 S
O122 C128 1.260 . S
O123 C128 1.254 . D
C124 O126 1.264 1_554 A
C124 O127 1.245 . A
Cd125 O126 2.500 1_554 S
Cd125 O127 2.335 . S
O130 C132 1.235 . A
O130 Cd138 2.531 1_556 S
O131 C132 1.271 . A
O131 Cd138 2.307 1_556 S
O133 Cd138 2.261 . S
O133 C142 1.275 . S
O134 C142 1.239 1_556 D
O135 Cd138 2.272 . S
O135 C141 1.260 . S
O136 C141 1.254 . D
C137 O139 1.264 1_556 A
C137 O140 1.245 . A
Cd138 O139 2.500 . S
Cd138 O140 2.335 1_554 S
O143 C145 1.235 . A
O143 Cd151 2.531 . S
O144 C145 1.271 . A
O144 Cd151 2.307 . S
O146 Cd151 2.261 1_556 S
O146 C155 1.275 . S
O147 C155 1.239 1_554 D
O148 Cd151 2.272 1_556 S
O148 C154 1.260 . S
O149 C154 1.254 . D
C150 O152 1.264 1_554 A
C150 O153 1.245 . A
Cd151 O152 2.500 1_554 S
Cd151 O153 2.335 . S
O156 C157 1.255 . D
C157 C158 1.468 . S
C158 C159 1.321 . D
C159 N160 1.408 . S
N160 C161 1.329 . S
C161 C162 1.469 1_455 S
C162 O163 1.217 . D
C161 C164 1.396 1_455 S
C164 C165 1.417 . S
C165 O166 1.207 . D
C164 N167 1.422 . S
N167 C158 1.431 1_655 S
C157 H168 1.066 . S
C159 H169 1.500 . S
C161 H170 1.500 1_455 S
C162 H171 1.083 . S
C164 H172 1.500 . S
C165 H173 1.080 . S
O174 C175 1.255 . D
C175 C176 1.468 . S
C176 C177 1.321 . D
C177 N178 1.407 1_545 S
N178 C179 1.328 . S
C179 C180 1.474 . S
C180 O181 1.217 . D
C179 C182 1.392 1_565 S
C182 C183 1.417 . S
C183 O184 1.207 1_545 D
C182 N185 1.417 . S
N185 C176 1.441 . S
C175 H186 1.066 . S
C177 H187 1.500 . S
C179 H188 1.505 . S
C180 H189 1.083 . S
C182 H190 1.500 . S
C183 H191 1.080 1_545 S
O192 C193 1.255 . D
C193 C194 1.468 . S
C194 C195 1.321 . D
C195 N196 1.408 . S
N196 C197 1.329 1_455 S
C197 C198 1.469 . S
C198 O199 1.217 . D
C197 C200 1.396 . S
C200 C201 1.417 . S
C201 O202 1.207 . D
C200 N203 1.417 1_655 S
N203 C194 1.441 . S
C193 H204 1.066 . S
C195 H205 1.500 . S
C197 H206 1.500 . S
C198 H207 1.083 . S
C200 H208 1.500 . S
C201 H209 1.080 . S
O210 C211 1.255 . D
C211 C212 1.468 . S
C212 C213 1.321 . D
C213 N214 1.408 1_565 S
N214 C215 1.329 . S
C215 C216 1.469 . S
C216 O217 1.217 . D
C215 C218 1.396 . S
C218 C219 1.417 . S
C219 O220 1.207 . D
C218 N221 1.417 1_545 S
N221 C212 1.441 . S
C211 H222 1.066 . S
C213 H223 1.500 . S
C215 H224 1.500 . S
C216 H225 1.083 . S
C218 H226 1.500 . S
C219 H227 1.080 . S
O228 C229 1.255 . D
C229 C230 1.468 . S
C230 C231 1.321 . D
C231 N232 1.408 1_655 S
N232 C233 1.329 . S
C233 C234 1.469 . S
C234 O235 1.217 . D
C233 C236 1.396 . S
C236 C237 1.417 . S
C237 O238 1.207 . D
C236 N239 1.396 1_455 S
N239 C230 1.455 . S
C229 H240 1.066 . S
C231 H241 1.500 . S
C233 H242 1.500 . S
C234 H243 1.083 . S
C236 H244 1.500 . S
C237 H245 1.080 . S
O246 C247 1.255 . D
C247 C248 1.468 . S
C248 C249 1.321 . D
C249 N250 1.408 1_554 S
N250 C251 1.329 . S
C251 C252 1.469 . S
C252 O253 1.217 . D
C251 C254 1.396 . S
C254 C255 1.417 . S
C255 O256 1.207 . D
C254 N257 1.417 1_556 S
N257 C248 1.441 . S
C247 H258 1.066 . S
C249 H259 1.500 . S
C251 H260 1.500 . S
C252 H261 1.083 . S
C254 H262 1.500 . S
C255 H263 1.080 . S
O264 C265 1.255 . D
C265 C266 1.468 . S
C266 C267 1.321 . D
C267 N268 1.408 1_554 S
N268 C269 1.329 . S
C269 C270 1.469 . S
C270 O271 1.217 . D
C269 C272 1.396 . S
C272 C273 1.417 . S
C273 O274 1.207 . D
C272 N275 1.417 1_556 S
N275 C266 1.441 . S
C265 H276 1.066 . S
C267 H277 1.500 . S
C269 H278 1.500 . S
C270 H279 1.083 . S
C272 H280 1.500 . S
C273 H281 1.080 . S
O282 C283 1.255 . D
C283 C284 1.463 1_565 S
C284 C285 1.326 . D
C285 N286 1.408 . S
N286 C287 1.329 . S
C287 C288 1.469 . S
C288 O289 1.217 . D
C287 C290 1.396 . S
C290 C291 1.417 1_545 S
C291 O292 1.207 . D
C290 N293 1.417 1_545 S
N293 C284 1.440 1_565 S
C283 H294 1.066 . S
C285 H295 1.500 . S
C287 H296 1.500 . S
C288 H297 1.083 . S
C290 H298 1.500 . S
C291 H299 1.080 1_565 S
O300 C301 1.255 . D
C301 C302 1.468 . S
C302 C303 1.321 . D
C303 N304 1.408 . S
N304 C305 1.329 1_455 S
C305 C306 1.469 . S
C306 O307 1.217 . D
C305 C308 1.396 1_655 S
C308 C309 1.417 . S
C309 O310 1.207 . D
C308 N311 1.417 . S
N311 C302 1.441 . S
C301 H312 1.066 . S
C303 H313 1.500 . S
C305 H314 1.500 . S
C306 H315 1.083 . S
C308 H316 1.500 1_455 S
C309 H317 1.080 1_455 S
O318 C319 1.255 . D
C319 C320 1.468 1_565 S
C320 C321 1.321 1_545 D
C321 N322 1.405 1_565 S
N322 C323 1.337 . S
C323 C324 1.469 . S
C324 O325 1.217 . D
C323 C326 1.396 . S
C326 C327 1.417 . S
C327 O328 1.207 . D
C326 N329 1.417 . S
N329 C320 1.441 . S
C319 H330 1.066 . S
C321 H331 1.500 . S
C323 H332 1.500 . S
C324 H333 1.083 . S
C326 H334 1.500 . S
C327 H335 1.080 . S
O336 C337 1.255 . D
C337 C338 1.468 . S
C338 C339 1.321 . D
C339 N340 1.408 . S
N340 C341 1.329 . S
C341 C342 1.469 . S
C342 O343 1.217 . D
C341 C344 1.396 . S
C344 C345 1.417 . S
C345 O346 1.207 . D
C344 N347 1.417 . S
N347 C338 1.441 . S
C337 H348 1.066 . S
C339 H349 1.500 . S
C341 H350 1.500 . S
C342 H351 1.083 . S
C344 H352 1.500 . S
C345 H353 1.080 . S
O354 C355 1.255 . D
C355 C356 1.468 . S
C356 C357 1.321 . D
C357 N358 1.408 . S
N358 C359 1.329 . S
C359 C360 1.469 . S
C360 O361 1.217 . D
C359 C362 1.396 . S
C362 C363 1.417 . S
C363 O364 1.207 . D
C362 N365 1.417 . S
N365 C356 1.441 . S
C355 H366 1.066 . S
C357 H367 1.500 . S
C359 H368 1.500 . S
C360 H369 1.083 . S
C362 H370 1.500 . S
C363 H371 1.080 . S
O372 C373 1.255 . D
C373 C374 1.468 . S
C374 C375 1.321 . D
C375 N376 1.408 . S
N376 C377 1.329 . S
C377 C378 1.469 . S
C378 O379 1.217 . D
C377 C380 1.396 . S
C380 C381 1.417 . S
C381 O382 1.207 . D
C380 N383 1.417 . S
N383 C374 1.441 . S
C373 H384 1.066 . S
C375 H385 1.500 . S
C377 H386 1.500 . S
C378 H387 1.083 . S
C380 H388 1.500 . S
C381 H389 1.080 . S
O390 C391 1.255 . D
C391 C392 1.468 . S
C392 C393 1.321 . D
C393 N394 1.408 . S
N394 C395 1.329 . S
C395 C396 1.469 . S
C396 O397 1.217 . D
C395 C398 1.396 . S
C398 C399 1.417 . S
C399 O400 1.207 . D
C398 N401 1.417 . S
N401 C392 1.441 . S
C391 H402 1.066 . S
C393 H403 1.500 . S
C395 H404 1.500 . S
C396 H405 1.083 . S
C398 H406 1.500 . S
C399 H407 1.080 . S
O408 C409 1.255 . D
C409 C410 1.468 . S
C410 C411 1.321 . D
C411 N412 1.408 . S
N412 C413 1.329 . S
C413 C414 1.469 . S
C414 O415 1.217 . D
C413 C416 1.396 . S
C416 C417 1.417 . S
C417 O418 1.207 . D
C416 N419 1.417 . S
N419 C410 1.441 . S
C409 H420 1.066 . S
C411 H421 1.500 . S
C413 H422 1.500 . S
C414 H423 1.083 . S
C416 H424 1.500 . S
C417 H425 1.080 . S
O426 C427 1.255 . D
C427 C428 1.468 . S
C428 C429 1.321 . D
C429 N430 1.408 . S
N430 C431 1.329 . S
C431 C432 1.469 . S
C432 O433 1.217 . D
C431 C434 1.396 . S
C434 C435 1.417 . S
C435 O436 1.207 . D
C434 N437 1.417 . S
N437 C428 1.441 . S
C427 H438 1.066 . S
C429 H439 1.500 . S
C431 H440 1.500 . S
C432 H441 1.083 . S
C434 H442 1.500 . S
C435 H443 1.080 . S
O444 C445 1.255 . D
C445 C446 1.468 . S
C446 C447 1.321 . D
C447 N448 1.408 . S
N448 C449 1.329 . S
C449 C450 1.469 . S
C450 O451 1.217 . D
C449 C452 1.396 . S
C452 C453 1.417 . S
C453 O454 1.207 . D
C452 N455 1.417 . S
N455 C446 1.441 . S
C445 H456 1.066 . S
C447 H457 1.500 . S
C449 H458 1.500 . S
C450 H459 1.083 . S
C452 H460 1.500 . S
C453 H461 1.080 . S
O462 C463 1.255 . D
C463 C464 1.468 . S
C464 C465 1.321 . D
C465 N466 1.408 . S
N466 C467 1.329 . S
C467 C468 1.469 . S
C468 O469 1.217 . D
C467 C470 1.396 . S
C470 C471 1.417 . S
C471 O472 1.207 . D
C470 N473 1.417 . S
N473 C464 1.441 . S
C463 H474 1.066 . S
C465 H475 1.500 . S
C467 H476 1.500 . S
C468 H477 1.083 . S
C470 H478 1.500 . S
C471 H479 1.080 . S
O480 C481 1.255 . D
C481 C482 1.468 . S
C482 C483 1.321 . D
C483 N484 1.408 . S
N484 C485 1.329 . S
C485 C486 1.469 . S
C486 O487 1.217 . D
C485 C488 1.396 . S
C488 C489 1.417 . S
C489 O490 1.207 . D
C488 N491 1.417 . S
N491 C482 1.441 . S
C481 H492 1.066 . S
C483 H493 1.500 . S
C485 H494 1.500 . S
C486 H495 1.083 . S
C488 H496 1.500 . S
C489 H497 1.080 . S
O498 C499 1.255 . D
C499 C500 1.468 . S
C500 C501 1.321 . D
C501 N502 1.408 . S
N502 C503 1.329 . S
C503 C504 1.469 . S
C504 O505 1.217 . D
C503 C506 1.396 . S
C506 C507 1.417 . S
C507 O508 1.207 . D
C506 N509 1.417 . S
N509 C500 1.441 . S
C499 H510 1.066 . S
C501 H511 1.500 . S
C503 H512 1.500 . S
C504 H513 1.083 . S
C506 H514 1.500 . S
C507 H515 1.080 . S
O516 C517 1.255 . D
C517 C518 1.468 . S
C518 C519 1.321 . D
C519 N520 1.408 . S
N520 C521 1.329 . S
C521 C522 1.469 . S
C522 O523 1.217 . D
C521 C524 1.396 . S
C524 C525 1.417 . S
C525 O526 1.207 . D
C524 N527 1.417 . S
N527 C518 1.441 . S
C517 H528 1.066 . S
C519 H529 1.500 . S
C521 H530 1.500 . S
C522 H531 1.083 . S
C524 H532 1.500 . S
C525 H533 1.080 . S
O534 C535 1.255 . D
C535 C536 1.468 . S
C536 C537 1.321 . D
C537 N538 1.408 . S
N538 C539 1.329 . S
C539 C540 1.469 . S
C540 O541 1.217 . D
C539 C542 1.396 . S
C542 C543 1.417 . S
C543 O544 1.207 . D
C542 N545 1.417 . S
N545 C536 1.441 . S
C535 H546 1.066 . S
C537 H547 1.500 . S
C539 H548 1.500 . S
C540 H549 1.083 . S
C542 H550 1.500 . S
C543 H551 1.080 . S
O552 C553 1.255 . D
C553 C554 1.468 . S
C554 C555 1.321 . D
C555 N556 1.408 1_554 S
N556 C557 1.329 . S
C557 C558 1.469 . S
C558 O559 1.217 . D
C557 C560 1.396 . S
C560 C561 1.416 . S
C561 O562 1.207 . D
C560 N563 1.418 1_556 S
N563 C554 1.441 . S
C553 H564 1.066 . S
C555 H565 1.500 . S
C557 H566 1.500 . S
C558 H567 1.083 . S
C560 H568 1.500 . S
C561 H569 1.080 . S
O570 C571 1.255 . D
C571 C572 1.468 . S
C572 C573 1.321 . D
C573 N574 1.408 . S
N574 C575 1.329 . S
C575 C576 1.469 . S
C576 O577 1.217 . D
C575 C578 1.396 1_554 S
C578 C579 1.417 . S
C579 O580 1.207 1_556 D
C578 N581 1.417 . S
N581 C572 1.441 1_556 S
C571 H582 1.066 . S
C573 H583 1.500 . S
C575 H584 1.500 . S
C576 H585 1.083 . S
C578 H586 1.500 . S
C579 H587 1.080 . S
N160 C7 1.558 . S
N167 C106 1.553 . S
N178 C15 1.548 . S
N185 C93 1.548 . S
N196 C89 1.523 . S
N203 C37 1.526 . S
N214 C24 1.533 . S
N221 C67 1.556 . S
N232 C115 1.548 . S
N239 C28 1.572 . S
N250 C129 1.543 . S
N257 C51 1.545 . S
N268 C46 1.546 . S
N275 C150 1.550 . S
N286 C76 1.542 . S
N293 C63 1.541 . S
N304 C12 1.520 . S
N311 C80 1.551 . S
N322 C102 1.536 . S
N329 C54 1.554 . S
N340 C50 1.548 . S
N347 C33 1.572 . S
N358 C20 1.550 . S
N365 C119 1.549 . S
N376 C141 1.533 . S
N383 C38 1.521 . S
N394 C41 1.561 . S
N401 C11 1.538 . S
N412 C128 1.545 . S
N419 C64 1.537 . S
N430 C2 1.540 . S
N437 C132 1.544 . S
N448 C59 1.553 . S
N455 C154 1.533 . S
N466 C145 1.556 . S
N473 C25 1.526 . S
N484 C90 1.529 . S
N491 C103 1.529 . S
N502 C111 1.545 . S
N509 C98 1.542 . S
N520 C72 1.548 . S
N527 C85 1.550 . S
N538 C77 1.542 . S
N545 C116 1.543 . S
N556 C137 1.548 . S
N563 C124 1.549 . S
N574 C142 1.532 . S
N581 C155 1.529 . S
