# Generated by pormake.
# Topology lvt, (4)-cn, num edge types: 1
# Building blocks:
#     Node 0, Type 0, BuildingBlock: N317, # of connection points: 4
#     Node 1, Type 0, BuildingBlock: N317, # of connection points: 4
#     Node 2, Type 0, BuildingBlock: N317, # of connection points: 4
#     Node 3, Type 0, BuildingBlock: N317, # of connection points: 4
#     Node 4, Type 0, BuildingBlock: N317, # of connection points: 4
#     Node 5, Type 0, BuildingBlock: N317, # of connection points: 4
#     Node 6, Type 0, BuildingBlock: N317, # of connection points: 4
#     Node 7, Type 0, BuildingBlock: N317, # of connection points: 4
#     Edge 8, Type (0, 0), BuildingBlock: OC(C(Br)CCC[Fr])C(S)O[Fr], # of connection points: 2
#     Edge 9, Type (0, 0), BuildingBlock: OC(C(Br)CCC[Fr])C(S)O[Fr], # of connection points: 2
#     Edge 10, Type (0, 0), BuildingBlock: OC(C(Br)CCC[Fr])C(S)O[Fr], # of connection points: 2
#     Edge 11, Type (0, 0), BuildingBlock: OC(C(Br)CCC[Fr])C(S)O[Fr], # of connection points: 2
#     Edge 12, Type (0, 0), BuildingBlock: OC(C(Br)CCC[Fr])C(S)O[Fr], # of connection points: 2
#     Edge 13, Type (0, 0), BuildingBlock: OC(C(Br)CCC[Fr])C(S)O[Fr], # of connection points: 2
#     Edge 14, Type (0, 0), BuildingBlock: OC(C(Br)CCC[Fr])C(S)O[Fr], # of connection points: 2
#     Edge 15, Type (0, 0), BuildingBlock: OC(C(Br)CCC[Fr])C(S)O[Fr], # of connection points: 2
#     Edge 16, Type (0, 0), BuildingBlock: OC(C(Br)CCC[Fr])C(S)O[Fr], # of connection points: 2
#     Edge 17, Type (0, 0), BuildingBlock: OC(C(Br)CCC[Fr])C(S)O[Fr], # of connection points: 2
#     Edge 18, Type (0, 0), BuildingBlock: OC(C(Br)CCC[Fr])C(S)O[Fr], # of connection points: 2
#     Edge 19, Type (0, 0), BuildingBlock: OC(C(Br)CCC[Fr])C(S)O[Fr], # of connection points: 2
#     Edge 20, Type (0, 0), BuildingBlock: OC(C(Br)CCC[Fr])C(S)O[Fr], # of connection points: 2
#     Edge 21, Type (0, 0), BuildingBlock: OC(C(Br)CCC[Fr])C(S)O[Fr], # of connection points: 2
#     Edge 22, Type (0, 0), BuildingBlock: OC(C(Br)CCC[Fr])C(S)O[Fr], # of connection points: 2
#     Edge 23, Type (0, 0), BuildingBlock: OC(C(Br)CCC[Fr])C(S)O[Fr], # of connection points: 2
# Relax obj value: 0.000
# Max RMSD: 0.002
# Mean RMSD: 0.001
data_OC(C(Br)CCC[Fr])C(S)O[Fr]_lvt_N317
_symmetry_space_group_name_H-M    P1
_symmetry_Int_Tables_number       1
_symmetry_cell_setting            triclinic
loop_
_symmetry_equiv_pos_as_xyz
'x, y, z'
_cell_length_a     35.900
_cell_length_b     35.900
_cell_length_c     3.030
_cell_angle_alpha  92.545
_cell_angle_beta   89.993
_cell_angle_gamma  90.286
loop_
_atom_site_label
_atom_site_type_symbol
_atom_site_fract_x
_atom_site_fract_y
_atom_site_fract_z
_atom_type_partial_charge
Co0 Co 0.50595 0.00204 0.53953 0.0
Co1 Co 0.49952 0.00567 0.46596 0.0
C2 C 0.55664 0.05057 0.06803 0.0
C3 C 0.54841 0.94991 0.06289 0.0
O4 O 0.46296 0.96587 0.58195 0.0
C5 C 0.45706 0.05779 0.94260 0.0
O6 O 0.45798 0.96868 0.32753 0.0
O7 O 0.54103 0.96009 0.67394 0.0
O8 O 0.53607 0.96309 0.41951 0.0
O9 O 0.54251 0.04183 0.42354 0.0
O10 O 0.54748 0.03902 0.67793 0.0
O11 O 0.46940 0.04461 0.58597 0.0
O12 O 0.46443 0.04761 0.33156 0.0
C13 C 0.44882 0.95713 0.93747 0.0
Co14 Co 0.74599 0.74883 0.29450 0.0
Co15 Co 0.75945 0.75883 0.20701 0.0
C16 C 0.79929 0.70013 0.72231 0.0
C17 C 0.70006 0.70843 0.92007 0.0
O18 O 0.71094 0.79201 0.40881 0.0
C19 C 0.80538 0.79922 0.58143 0.0
O20 O 0.72166 0.79986 0.14341 0.0
O21 O 0.70597 0.71430 0.51319 0.0
O22 O 0.71689 0.72214 0.24739 0.0
O23 O 0.79450 0.71564 0.09271 0.0
O24 O 0.78378 0.70779 0.35807 0.0
O25 O 0.78855 0.78551 0.25411 0.0
O26 O 0.79947 0.79335 0.98833 0.0
C27 C 0.70616 0.80753 0.77921 0.0
Co28 Co 0.99990 0.00216 0.03392 0.0
Co29 Co 0.00596 0.00541 0.96035 0.0
C30 C 0.94882 0.95755 0.56194 0.0
C31 C 0.95705 0.05818 0.55783 0.0
O32 O 0.04250 0.03865 0.07671 0.0
C33 C 0.04841 0.94940 0.43643 0.0
O34 O 0.04749 0.04137 0.82229 0.0
O35 O 0.96443 0.04511 0.16876 0.0
O36 O 0.96940 0.04764 0.91433 0.0
O37 O 0.96296 0.96893 0.91756 0.0
O38 O 0.95797 0.96620 0.17195 0.0
O39 O 0.03606 0.95993 0.07993 0.0
O40 O 0.04103 0.96246 0.82551 0.0
C41 C 0.05664 0.05002 0.43234 0.0
Co42 Co 0.24616 0.24892 0.79483 0.0
Co43 Co 0.25929 0.25874 0.70822 0.0
C44 C 0.29930 0.20014 0.22399 0.0
C45 C 0.20000 0.20839 0.41677 0.0
O46 O 0.21107 0.29208 0.90852 0.0
C47 C 0.30545 0.29927 0.08627 0.0
O48 O 0.22152 0.29978 0.64382 0.0
O49 O 0.20607 0.21434 0.01041 0.0
O50 O 0.21671 0.22203 0.74533 0.0
O51 O 0.29438 0.21558 0.59453 0.0
O52 O 0.28393 0.20788 0.85920 0.0
O53 O 0.28874 0.28563 0.75771 0.0
O54 O 0.29938 0.29332 0.49264 0.0
C55 C 0.20615 0.30752 0.27907 0.0
Co56 Co 0.25274 0.75239 0.21580 0.0
Co57 Co 0.25273 0.75528 0.28930 0.0
C58 C 0.20617 0.69976 0.68695 0.0
C59 C 0.30682 0.70783 0.69411 0.0
O60 O 0.28915 0.79515 0.17362 0.0
C61 C 0.19864 0.79983 0.81100 0.0
O62 O 0.28925 0.79728 0.42799 0.0
O63 O 0.29515 0.71672 0.08272 0.0
O64 O 0.29505 0.71883 0.33708 0.0
O65 O 0.21632 0.71252 0.33147 0.0
O66 O 0.21622 0.71039 0.07714 0.0
O67 O 0.21041 0.78884 0.16803 0.0
O68 O 0.21032 0.79095 0.42238 0.0
C69 C 0.29930 0.80791 0.81814 0.0
Co70 Co 0.00595 0.50200 0.03347 0.0
Co71 Co 0.99990 0.50565 0.95989 0.0
C72 C 0.05664 0.55054 0.56185 0.0
C73 C 0.04841 0.44988 0.55698 0.0
O74 O 0.96296 0.46583 0.07598 0.0
C75 C 0.95706 0.55776 0.43637 0.0
O76 O 0.95798 0.46866 0.82155 0.0
O77 O 0.04103 0.46005 0.16800 0.0
O78 O 0.03607 0.46307 0.91357 0.0
O79 O 0.04251 0.54181 0.91739 0.0
O80 O 0.04749 0.53899 0.17178 0.0
O81 O 0.96940 0.54458 0.07978 0.0
O82 O 0.96443 0.54759 0.82536 0.0
C83 C 0.94882 0.45711 0.43152 0.0
Co84 Co 0.75291 0.25230 0.71634 0.0
Co85 Co 0.75255 0.25537 0.79003 0.0
C86 C 0.70614 0.19978 0.18848 0.0
C87 C 0.80680 0.20783 0.19061 0.0
O88 O 0.78931 0.29506 0.67348 0.0
C89 C 0.69866 0.29984 0.31577 0.0
O90 O 0.78913 0.29734 0.92799 0.0
O91 O 0.79527 0.21664 0.58004 0.0
O92 O 0.79490 0.21890 0.83456 0.0
O93 O 0.71616 0.21261 0.83289 0.0
O94 O 0.71633 0.21033 0.57841 0.0
O95 O 0.71057 0.28877 0.67182 0.0
O96 O 0.71020 0.29103 0.92633 0.0
C97 C 0.79932 0.30789 0.31788 0.0
Co98 Co 0.50591 0.49562 0.56095 0.0
Co99 Co 0.49955 0.51230 0.47395 0.0
C100 C 0.55664 0.55059 0.98939 0.0
C101 C 0.54842 0.45204 0.18447 0.0
O102 O 0.46293 0.46084 0.67501 0.0
C103 C 0.45705 0.55589 0.85043 0.0
O104 O 0.45801 0.47415 0.41000 0.0
O105 O 0.54101 0.45649 0.77788 0.0
O106 O 0.53610 0.46998 0.51248 0.0
O107 O 0.54253 0.54708 0.35990 0.0
O108 O 0.54746 0.53377 0.62488 0.0
O109 O 0.46937 0.53794 0.52242 0.0
O110 O 0.46445 0.55143 0.25703 0.0
C111 C 0.44882 0.45733 0.04552 0.0
O112 O 0.66248 0.09386 0.68644 0.0
C113 C 0.65363 0.12441 0.43940 0.0
C114 C 0.66185 0.11750 0.96025 0.0
Br115 Br 0.71689 0.10932 0.91847 0.0
C116 C 0.64630 0.08488 0.71845 0.0
C117 C 0.60579 0.07850 0.67691 0.0
C118 C 0.58684 0.07111 0.10159 0.0
C119 C 0.68223 0.15629 0.59479 0.0
S120 S 0.67543 0.16532 0.18103 0.0
O121 O 0.67328 0.18652 0.34700 0.0
H122 H 0.64904 0.09800 0.97642 0.0
H123 H 0.62678 0.13643 0.52270 0.0
H124 H 0.65924 0.14439 0.78236 0.0
H125 H 0.65741 0.05925 0.89662 0.0
H126 H 0.66093 0.07998 0.38514 0.0
H127 H 0.59227 0.10284 0.51008 0.0
H128 H 0.60061 0.05289 0.45633 0.0
H129 H 0.59086 0.09090 0.37600 0.0
H130 H 0.59833 0.04350 0.20928 0.0
H131 H 0.70971 0.14440 0.50926 0.0
H132 H 0.64206 0.14967 0.32395 0.0
O133 O 0.65773 0.91177 0.26327 0.0
C134 C 0.63367 0.90703 0.61730 0.0
C135 C 0.60473 0.87799 0.51407 0.0
Br136 Br 0.57505 0.89665 0.01061 0.0
C137 C 0.61548 0.84048 0.35682 0.0
C138 C 0.63919 0.81639 0.62009 0.0
C139 C 0.67803 0.83039 0.68270 0.0
C140 C 0.61088 0.94482 0.66965 0.0
S141 S 0.64415 0.98212 0.77555 0.0
O142 O 0.58698 0.93984 0.02159 0.0
H143 H 0.68007 0.92546 0.39191 0.0
H144 H 0.64787 0.90562 0.93152 0.0
H145 H 0.58289 0.87862 0.78309 0.0
H146 H 0.63190 0.84434 0.03221 0.0
H147 H 0.59034 0.82430 0.21412 0.0
H148 H 0.62541 0.81152 0.95152 0.0
H149 H 0.64187 0.78826 0.44283 0.0
H150 H 0.68194 0.85853 0.81448 0.0
H151 H 0.69114 0.82914 0.34086 0.0
H152 H 0.59613 0.94644 0.35172 0.0
H153 H 0.67895 0.96825 0.89128 0.0
O154 O 0.90287 0.15924 0.06679 0.0
C155 C 0.90273 0.13464 0.69803 0.0
C156 C 0.87300 0.10566 0.72456 0.0
Br157 Br 0.88505 0.07675 0.25594 0.0
C158 C 0.83419 0.11643 0.79778 0.0
C159 C 0.81382 0.13966 0.48974 0.0
C160 C 0.82825 0.17852 0.47214 0.0
C161 C 0.94053 0.11197 0.72542 0.0
S162 S 0.97838 0.14533 0.71651 0.0
O163 O 0.94012 0.08754 0.35823 0.0
H164 H 0.91788 0.18149 0.97793 0.0
H165 H 0.90527 0.14841 0.38843 0.0
H166 H 0.87705 0.08343 0.45289 0.0
H167 H 0.83386 0.13333 0.13301 0.0
H168 H 0.81658 0.09137 0.89399 0.0
H169 H 0.81323 0.12539 0.14630 0.0
H170 H 0.78398 0.14243 0.60166 0.0
H171 H 0.85752 0.18242 0.40737 0.0
H172 H 0.82269 0.19210 0.81168 0.0
H173 H 0.93815 0.09765 0.03902 0.0
H174 H 0.96615 0.17992 0.58134 0.0
O175 O 0.41472 0.16710 0.61632 0.0
C176 C 0.40453 0.13543 0.83784 0.0
C177 C 0.41065 0.14027 0.32397 0.0
Br178 Br 0.46549 0.14837 0.40500 0.0
C179 C 0.39429 0.17184 0.57483 0.0
C180 C 0.35371 0.17799 0.59473 0.0
C181 C 0.33675 0.18720 0.16485 0.0
C182 C 0.43354 0.10423 0.68157 0.0
S183 S 0.42929 0.09774 0.08848 0.0
O184 O 0.42324 0.07289 0.90399 0.0
H185 H 0.40257 0.16419 0.31684 0.0
H186 H 0.37800 0.12371 0.73079 0.0
H187 H 0.40703 0.11258 0.48285 0.0
H188 H 0.40640 0.19829 0.42023 0.0
H189 H 0.40745 0.17532 0.91863 0.0
H190 H 0.33927 0.15287 0.73735 0.0
H191 H 0.34776 0.20265 0.82668 0.0
H192 H 0.34183 0.16860 0.88221 0.0
H193 H 0.34892 0.21532 0.08182 0.0
H194 H 0.46069 0.11581 0.79116 0.0
H195 H 0.39673 0.11397 0.93499 0.0
O196 O 0.08704 0.84172 0.10598 0.0
C197 C 0.12010 0.85179 0.90099 0.0
C198 C 0.11845 0.84509 0.41198 0.0
Br199 Br 0.11107 0.79008 0.30829 0.0
C200 C 0.08847 0.86105 0.15532 0.0
C201 C 0.08232 0.90163 0.14766 0.0
C202 C 0.07026 0.91906 0.57900 0.0
C203 C 0.15036 0.82306 0.05859 0.0
S204 S 0.15298 0.82801 0.65428 0.0
O205 O 0.18310 0.83322 0.85263 0.0
H206 H 0.08796 0.85424 0.41022 0.0
H207 H 0.13103 0.87851 0.02187 0.0
H208 H 0.14715 0.84864 0.26557 0.0
H209 H 0.06107 0.84901 0.29490 0.0
H210 H 0.08728 0.84748 0.80629 0.0
H211 H 0.10830 0.91601 0.02036 0.0
H212 H 0.05916 0.90723 0.90883 0.0
H213 H 0.08703 0.91437 0.86636 0.0
H214 H 0.04165 0.90686 0.64650 0.0
H215 H 0.13959 0.79571 0.93501 0.0
H216 H 0.13565 0.86071 0.81278 0.0
O217 O 0.34696 0.90949 0.53409 0.0
C218 C 0.37187 0.90641 0.18197 0.0
C219 C 0.40045 0.87714 0.24666 0.0
Br220 Br 0.42894 0.89368 0.78932 0.0
C221 C 0.38920 0.83904 0.33739 0.0
C222 C 0.36608 0.81608 0.02703 0.0
C223 C 0.32745 0.83014 0.97443 0.0
C224 C 0.39489 0.94439 0.20036 0.0
S225 S 0.36200 0.98187 0.14519 0.0
O226 O 0.41962 0.94105 0.84986 0.0
H227 H 0.32499 0.92360 0.42094 0.0
H228 H 0.35844 0.90631 0.86176 0.0
H229 H 0.42295 0.87903 0.98734 0.0
H230 H 0.37201 0.84141 0.66141 0.0
H231 H 0.41394 0.82240 0.46140 0.0
H232 H 0.38065 0.81272 0.69363 0.0
H233 H 0.36288 0.78727 0.15604 0.0
H234 H 0.32394 0.85874 0.88847 0.0
H235 H 0.31351 0.82736 0.30829 0.0
H236 H 0.40885 0.94468 0.52482 0.0
H237 H 0.32746 0.96841 0.99489 0.0
O238 O 0.16079 0.08689 0.82532 0.0
C239 C 0.13094 0.09874 0.08865 0.0
C240 C 0.13909 0.09610 0.56893 0.0
Br241 Br 0.14757 0.04196 0.66405 0.0
C242 C 0.17219 0.11412 0.76379 0.0
C243 C 0.17852 0.15472 0.75482 0.0
C244 C 0.18471 0.16853 0.30433 0.0
C245 C 0.09884 0.06878 0.99362 0.0
S246 S 0.08829 0.06878 0.41011 0.0
O247 O 0.06931 0.08074 0.25731 0.0
H248 H 0.15586 0.09687 0.52529 0.0
H249 H 0.11863 0.12447 0.98668 0.0
H250 H 0.11273 0.10094 0.76703 0.0
H251 H 0.19733 0.10086 0.57591 0.0
H252 H 0.17800 0.10345 0.10763 0.0
H253 H 0.15463 0.17022 0.92763 0.0
H254 H 0.20461 0.16224 0.94620 0.0
H255 H 0.16429 0.16149 0.05291 0.0
H256 H 0.21201 0.15570 0.18531 0.0
H257 H 0.11103 0.04245 0.09863 0.0
H258 H 0.10340 0.10011 0.21708 0.0
O259 O 0.09791 0.34754 0.00279 0.0
C260 C 0.10084 0.37222 0.66232 0.0
C261 C 0.13018 0.40113 0.75214 0.0
Br262 Br 0.11401 0.42994 0.29942 0.0
C263 C 0.16828 0.39027 0.85536 0.0
C264 C 0.19101 0.36707 0.54560 0.0
C265 C 0.17686 0.32825 0.47054 0.0
C266 C 0.06294 0.39495 0.67322 0.0
S267 S 0.02539 0.36167 0.58743 0.0
O268 O 0.06612 0.41946 0.33441 0.0
H269 H 0.08371 0.32534 0.87408 0.0
H270 H 0.10074 0.35853 0.33645 0.0
H271 H 0.12819 0.42343 0.50125 0.0
H272 H 0.16606 0.37330 0.17126 0.0
H273 H 0.18502 0.41527 0.99723 0.0
H274 H 0.19421 0.38142 0.21967 0.0
H275 H 0.21986 0.36423 0.68629 0.0
H276 H 0.14823 0.32443 0.37021 0.0
H277 H 0.17980 0.31458 0.79995 0.0
H278 H 0.06285 0.40919 0.00348 0.0
H279 H 0.03870 0.32709 0.42873 0.0
O280 O 0.34992 0.41605 0.76722 0.0
C281 C 0.37339 0.40973 0.40573 0.0
C282 C 0.40246 0.38143 0.49221 0.0
Br283 Br 0.43299 0.40289 0.99566 0.0
C284 C 0.39192 0.34459 0.63898 0.0
C285 C 0.36775 0.31896 0.37261 0.0
C286 C 0.32883 0.33232 0.32383 0.0
C287 C 0.39614 0.44749 0.36125 0.0
S288 S 0.36274 0.48401 0.27597 0.0
O289 O 0.41944 0.44094 0.00181 0.0
H290 H 0.32740 0.42893 0.64843 0.0
H291 H 0.35867 0.40663 0.09409 0.0
H292 H 0.42385 0.38089 0.21818 0.0
H293 H 0.37604 0.34995 0.96896 0.0
H294 H 0.41727 0.32932 0.77033 0.0
H295 H 0.38097 0.31253 0.03608 0.0
H296 H 0.36533 0.29167 0.54082 0.0
H297 H 0.32473 0.35980 0.20268 0.0
H298 H 0.31629 0.33268 0.66850 0.0
H299 H 0.41141 0.45083 0.67656 0.0
H300 H 0.32774 0.46925 0.16338 0.0
O301 O 0.90513 0.84732 0.94986 0.0
C302 C 0.90413 0.87291 0.30896 0.0
C303 C 0.87457 0.90148 0.26028 0.0
Br304 Br 0.88805 0.92895 0.72145 0.0
C305 C 0.83593 0.89017 0.17744 0.0
C306 C 0.81471 0.86767 0.48759 0.0
C307 C 0.82897 0.82907 0.52581 0.0
C308 C 0.94205 0.89580 0.28605 0.0
S309 S 0.97976 0.86288 0.32176 0.0
O310 O 0.94079 0.92121 0.64355 0.0
H311 H 0.91984 0.82551 0.05297 0.0
H312 H 0.90584 0.86007 0.62510 0.0
H313 H 0.87800 0.92447 0.52469 0.0
H314 H 0.83641 0.87236 0.84866 0.0
H315 H 0.81865 0.91474 0.06494 0.0
H316 H 0.81330 0.88288 0.82531 0.0
H317 H 0.78516 0.86432 0.36606 0.0
H318 H 0.85805 0.82564 0.60261 0.0
H319 H 0.82424 0.81451 0.18953 0.0
H320 H 0.94052 0.90918 0.96576 0.0
H321 H 0.96708 0.82864 0.46637 0.0
O322 O 0.59324 0.66676 0.45847 0.0
C323 C 0.60176 0.63464 0.20441 0.0
C324 C 0.59264 0.63845 0.72831 0.0
Br325 Br 0.53750 0.64620 0.70186 0.0
C326 C 0.60763 0.66958 0.48746 0.0
C327 C 0.64803 0.67582 0.43652 0.0
C328 C 0.66772 0.68599 0.85759 0.0
C329 C 0.57356 0.60365 0.36228 0.0
S330 S 0.58147 0.59840 0.94554 0.0
O331 O 0.58217 0.57185 0.10749 0.0
H332 H 0.60722 0.66452 0.74445 0.0
H333 H 0.62880 0.62323 0.27902 0.0
H334 H 0.59503 0.61042 0.54557 0.0
H335 H 0.59674 0.69633 0.67246 0.0
H336 H 0.59238 0.67230 0.15857 0.0
H337 H 0.66133 0.65044 0.26245 0.0
H338 H 0.65271 0.70004 0.21848 0.0
H339 H 0.66428 0.66795 0.13006 0.0
H340 H 0.65633 0.71428 0.97249 0.0
H341 H 0.54589 0.61492 0.28558 0.0
H342 H 0.61504 0.61508 0.08235 0.0
O343 O 0.66383 0.42184 0.64756 0.0
C344 C 0.63290 0.40920 0.40608 0.0
C345 C 0.63919 0.41025 0.92016 0.0
Br346 Br 0.64770 0.46394 0.79550 0.0
C347 C 0.67136 0.39160 0.71546 0.0
C348 C 0.67740 0.35111 0.73963 0.0
C349 C 0.68524 0.33880 0.19304 0.0
C350 C 0.60143 0.43944 0.50492 0.0
S351 S 0.59317 0.44136 0.09417 0.0
O352 O 0.57082 0.42670 0.26295 0.0
H353 H 0.66000 0.41286 0.95487 0.0
H354 H 0.62080 0.38389 0.52662 0.0
H355 H 0.61205 0.40482 0.73876 0.0
H356 H 0.69730 0.40540 0.88344 0.0
H357 H 0.67590 0.40111 0.36356 0.0
H358 H 0.65274 0.33513 0.58707 0.0
H359 H 0.70266 0.34295 0.53742 0.0
H360 H 0.66587 0.34667 0.45239 0.0
H361 H 0.71307 0.35194 0.29117 0.0
H362 H 0.61340 0.46534 0.38113 0.0
H363 H 0.60877 0.41071 0.29330 0.0
O364 O 0.90362 0.34885 0.03424 0.0
C365 C 0.88148 0.35150 0.65955 0.0
C366 C 0.85242 0.38084 0.71928 0.0
Br367 Br 0.81998 0.36492 0.21517 0.0
C368 C 0.86280 0.41907 0.85512 0.0
C369 C 0.88811 0.44169 0.59065 0.0
C370 C 0.92702 0.42759 0.56701 0.0
C371 C 0.85854 0.31350 0.62001 0.0
S372 S 0.89185 0.27596 0.56713 0.0
O373 O 0.83656 0.31641 0.24734 0.0
H374 H 0.92641 0.33461 0.93249 0.0
H375 H 0.89728 0.35123 0.35486 0.0
H376 H 0.83199 0.37862 0.43526 0.0
H377 H 0.87747 0.41710 0.19423 0.0
H378 H 0.83717 0.43585 0.96698 0.0
H379 H 0.87612 0.44465 0.24586 0.0
H380 H 0.89021 0.47067 0.74789 0.0
H381 H 0.93127 0.39888 0.45998 0.0
H382 H 0.93837 0.43079 0.91698 0.0
H383 H 0.84217 0.31358 0.92819 0.0
H384 H 0.92734 0.28928 0.46596 0.0
O385 O 0.90752 0.65570 0.30995 0.0
C386 C 0.90460 0.63346 0.92284 0.0
C387 C 0.87527 0.60413 0.95495 0.0
Br388 Br 0.89144 0.57187 0.44139 0.0
C389 C 0.83716 0.61423 0.07926 0.0
C390 C 0.81443 0.63934 0.81767 0.0
C391 C 0.82858 0.67840 0.81997 0.0
C392 C 0.94250 0.61081 0.88836 0.0
S393 S 0.98005 0.64445 0.86886 0.0
O394 O 0.93932 0.58872 0.50324 0.0
H395 H 0.92173 0.67862 0.22601 0.0
H396 H 0.90470 0.64923 0.62627 0.0
H397 H 0.87726 0.58366 0.66152 0.0
H398 H 0.83938 0.62899 0.42670 0.0
H399 H 0.82042 0.58845 0.17075 0.0
H400 H 0.81124 0.62726 0.46549 0.0
H401 H 0.78558 0.64122 0.96327 0.0
H402 H 0.85721 0.68288 0.72770 0.0
H403 H 0.82563 0.68979 0.17431 0.0
H404 H 0.94259 0.59446 0.18821 0.0
H405 H 0.96674 0.67985 0.77984 0.0
O406 O 0.33219 0.58552 0.21804 0.0
C407 C 0.36721 0.59838 0.09591 0.0
C408 C 0.37194 0.59776 0.60653 0.0
Br409 Br 0.36730 0.54421 0.39883 0.0
C410 C 0.34517 0.61656 0.33014 0.0
C411 C 0.33819 0.65700 0.38062 0.0
C412 C 0.32038 0.66890 0.80741 0.0
C413 C 0.39582 0.56810 0.25487 0.0
S414 S 0.39074 0.56566 0.84663 0.0
O415 O 0.43054 0.58107 0.13139 0.0
H416 H 0.32893 0.59422 0.53651 0.0
H417 H 0.37582 0.62359 0.27857 0.0
H418 H 0.40207 0.60337 0.52232 0.0
H419 H 0.31662 0.60260 0.39562 0.0
H420 H 0.34874 0.60736 0.96585 0.0
H421 H 0.36513 0.67313 0.32848 0.0
H422 H 0.31819 0.66533 0.11623 0.0
H423 H 0.33343 0.66081 0.10890 0.0
H424 H 0.29155 0.65566 0.80043 0.0
H425 H 0.38741 0.54231 0.06880 0.0
H426 H 0.37080 0.59610 0.02486 0.0
O427 O 0.15204 0.59995 0.29805 0.0
C428 C 0.13070 0.60206 0.91613 0.0
C429 C 0.10159 0.63148 0.96117 0.0
Br430 Br 0.06808 0.61633 0.45093 0.0
C431 C 0.11177 0.66987 0.09215 0.0
C432 C 0.13767 0.69206 0.83037 0.0
C433 C 0.17659 0.67792 0.82118 0.0
C434 C 0.10777 0.56406 0.87772 0.0
S435 S 0.14109 0.52645 0.84250 0.0
O436 O 0.08658 0.56642 0.49782 0.0
H437 H 0.17501 0.58556 0.20598 0.0
H438 H 0.14714 0.60133 0.61608 0.0
H439 H 0.08176 0.62886 0.67147 0.0
H440 H 0.12572 0.66839 0.43613 0.0
H441 H 0.08594 0.68682 0.19296 0.0
H442 H 0.12642 0.69451 0.48131 0.0
H443 H 0.13951 0.72125 0.98225 0.0
H444 H 0.18100 0.64907 0.72135 0.0
H445 H 0.18721 0.68161 0.17395 0.0
H446 H 0.09075 0.56460 0.18113 0.0
H447 H 0.17681 0.53958 0.74902 0.0
loop_
_geom_bond_atom_site_label_1
_geom_bond_atom_site_label_2
_geom_bond_distance
_geom_bond_site_symmetry_2
_ccdc_geom_bond_type
Co0 Co1 0.351 . S
Co0 O4 2.020 1_545 S
Co0 O7 2.023 1_545 S
Co0 O10 2.023 . S
Co0 O11 2.020 . S
Co1 O6 2.023 1_545 S
Co1 O8 2.020 1_545 S
Co1 O9 2.020 . S
Co1 O12 2.023 . S
C2 O9 1.243 . A
C2 O10 1.277 1_554 A
C3 O7 1.277 1_554 A
C3 O8 1.243 . A
O4 C13 1.243 . A
C5 O11 1.243 . A
C5 O12 1.277 1_556 A
O6 C13 1.277 1_554 A
Co14 Co15 0.663 . S
Co14 O18 2.020 . S
Co14 O21 2.023 . S
Co14 O24 2.023 . S
Co14 O25 2.020 . S
Co15 O20 2.023 . S
Co15 O22 2.020 . S
Co15 O23 2.020 . S
Co15 O26 2.023 1_554 S
C16 O23 1.243 1_556 A
C16 O24 1.277 . A
C17 O21 1.277 . A
C17 O22 1.243 1_556 A
O18 C27 1.243 . A
C19 O25 1.243 . A
C19 O26 1.277 . A
O20 C27 1.277 1_554 A
Co28 Co29 0.336 1_654 S
Co28 O32 2.009 1_655 S
Co28 O35 2.032 . S
Co28 O38 2.034 1_545 S
Co28 O39 2.010 1_645 S
Co29 O34 2.023 . S
Co29 O36 2.020 1_455 S
Co29 O37 2.020 1_445 S
Co29 O40 2.023 1_545 S
C30 O37 1.243 . A
C30 O38 1.277 . A
C31 O35 1.277 . A
C31 O36 1.243 . A
O32 C41 1.243 . A
C33 O39 1.243 . A
C33 O40 1.277 . A
O34 C41 1.277 . A
Co42 Co43 0.649 . S
Co42 O46 2.020 . S
Co42 O49 2.023 1_556 S
Co42 O52 2.023 . S
Co42 O53 2.020 . S
Co43 O48 2.023 . S
Co43 O50 2.020 . S
Co43 O51 2.020 . S
Co43 O54 2.023 . S
C44 O51 1.243 . A
C44 O52 1.277 1_554 A
C45 O49 1.277 . A
C45 O50 1.243 . A
O46 C55 1.243 1_556 A
C47 O53 1.243 1_554 A
C47 O54 1.277 . A
O48 C55 1.277 . A
Co56 Co57 0.241 . S
Co56 O60 2.020 . S
Co56 O63 2.023 . S
Co56 O66 2.023 . S
Co56 O67 2.020 . S
Co57 O62 2.023 . S
Co57 O64 2.020 . S
Co57 O65 2.020 . S
Co57 O68 2.023 . S
C58 O65 1.243 . A
C58 O66 1.277 1_556 A
C59 O63 1.277 1_556 A
C59 O64 1.243 . A
O60 C69 1.243 1_554 A
C61 O67 1.243 1_556 A
C61 O68 1.277 . A
O62 C69 1.277 . A
Co70 Co71 0.342 1_454 S
Co70 O74 2.020 1_455 S
Co70 O77 2.023 . S
Co70 O80 2.023 . S
Co70 O81 2.020 1_455 S
Co71 O76 2.033 . S
Co71 O78 2.011 1_655 S
Co71 O79 2.009 1_655 S
Co71 O82 2.032 . S
C72 O79 1.243 . A
C72 O80 1.277 . A
C73 O77 1.277 . A
C73 O78 1.243 . A
O74 C83 1.243 . A
C75 O81 1.243 . A
C75 O82 1.277 . A
O76 C83 1.277 . A
Co84 Co85 0.245 . S
Co84 O88 2.020 . S
Co84 O91 2.023 . S
Co84 O94 2.023 . S
Co84 O95 2.020 . S
Co85 O90 2.023 . S
Co85 O92 2.020 . S
Co85 O93 2.020 . S
Co85 O96 2.023 . S
C86 O93 1.243 1_554 A
C86 O94 1.277 . A
C87 O91 1.277 . A
C87 O92 1.243 1_554 A
O88 C97 1.243 . A
C89 O95 1.243 . A
C89 O96 1.277 1_554 A
O90 C97 1.277 1_556 A
Co98 Co99 0.704 . S
Co98 O102 2.020 . S
Co98 O105 2.023 . S
Co98 O108 2.023 . S
Co98 O109 2.020 . S
Co99 O104 2.023 . S
Co99 O106 2.020 . S
Co99 O107 2.020 . S
Co99 O110 2.023 . S
C100 O107 1.243 1_556 A
C100 O108 1.277 . A
C101 O105 1.277 1_554 A
C101 O106 1.243 . A
O102 C111 1.243 1_556 A
C103 O109 1.243 . A
C103 O110 1.277 1_556 A
O104 C111 1.277 . A
O112 C113 1.393 . S
C113 C114 1.491 1_554 S
C114 Br115 2.002 . S
C114 C116 1.462 . S
C116 C117 1.476 . S
C117 C118 1.489 1_556 S
C113 C119 1.590 . S
C119 S120 1.332 . S
C119 O121 1.386 . S
O112 H122 1.008 . S
C113 H123 1.083 . S
C114 H124 1.131 . S
C116 H125 1.160 . S
C116 H126 1.145 . S
C117 H127 1.139 . S
C117 H128 1.127 . S
C118 H129 1.078 . S
C118 H130 1.137 . S
C119 H131 1.103 . S
S120 H132 1.398 . S
O133 C134 1.393 . S
C134 C135 1.491 . S
C135 Br136 1.940 1_556 S
C135 C137 1.462 . S
C137 C138 1.476 . S
C138 C139 1.489 . S
C134 C140 1.590 . S
C140 S141 1.808 . S
C140 O142 1.386 1_556 S
O133 H143 1.008 . S
C134 H144 1.083 . S
C135 H145 1.131 . S
C137 H146 1.160 . S
C137 H147 1.145 . S
C138 H148 1.139 . S
C138 H149 1.127 . S
C139 H150 1.078 . S
C139 H151 1.137 . S
C140 H152 1.103 . S
S141 H153 1.398 . S
O154 C155 1.393 1_554 S
C155 C156 1.491 . S
C156 Br157 1.776 . S
C156 C158 1.462 . S
C158 C159 1.476 . S
C159 C160 1.489 . S
C155 C161 1.590 . S
C161 S162 1.808 . S
C161 O163 1.386 . S
O154 H164 1.008 1_554 S
C155 H165 1.083 . S
C156 H166 1.131 . S
C158 H167 1.160 1_556 S
C158 H168 1.145 . S
C159 H169 1.139 . S
C159 H170 1.127 . S
C160 H171 1.078 . S
C160 H172 1.137 . S
C161 H173 1.103 1_556 S
S162 H174 1.398 . S
O175 C176 1.393 . S
C176 C177 1.491 1_556 S
C177 Br178 2.002 . S
C177 C179 1.462 . S
C179 C180 1.476 . S
C180 C181 1.489 . S
C176 C182 1.590 . S
C182 S183 1.274 1_556 S
C182 O184 1.386 . S
O175 H185 1.008 . S
C176 H186 1.083 . S
C177 H187 1.131 . S
C179 H188 1.160 . S
C179 H189 1.145 . S
C180 H190 1.139 . S
C180 H191 1.127 . S
C181 H192 1.078 1_554 S
C181 H193 1.137 . S
C182 H194 1.103 . S
S183 H195 1.398 1_554 S
O196 C197 1.393 1_554 S
C197 C198 1.491 . S
C198 Br199 2.002 . S
C198 C200 1.462 . S
C200 C201 1.476 . S
C201 C202 1.489 . S
C197 C203 1.590 1_556 S
C203 S204 1.249 1_554 S
C203 O205 1.386 1_554 S
O196 H206 1.008 . S
C197 H207 1.083 1_556 S
C198 H208 1.131 . S
C200 H209 1.160 . S
C200 H210 1.145 1_554 S
C201 H211 1.139 . S
C201 H212 1.127 1_554 S
C202 H213 1.078 . S
C202 H214 1.137 . S
C203 H215 1.103 1_554 S
S204 H216 1.398 . S
O217 C218 1.393 . S
C218 C219 1.491 . S
C219 Br220 1.840 1_554 S
C219 C221 1.462 . S
C221 C222 1.476 . S
C222 C223 1.489 1_554 S
C218 C224 1.590 . S
C224 S225 1.808 . S
C224 O226 1.386 1_554 S
O217 H227 1.008 . S
C218 H228 1.083 1_554 S
C219 H229 1.131 1_554 S
C221 H230 1.160 . S
C221 H231 1.145 . S
C222 H232 1.139 1_554 S
C222 H233 1.127 . S
C223 H234 1.078 . S
C223 H235 1.137 1_556 S
C224 H236 1.103 . S
S225 H237 1.398 1_554 S
O238 C239 1.393 1_556 S
C239 C240 1.491 . S
C240 Br241 2.002 . S
C240 C242 1.462 . S
C242 C243 1.476 . S
C243 C244 1.489 . S
C239 C245 1.590 1_554 S
C245 S246 1.317 1_556 S
C245 O247 1.386 1_556 S
O238 H248 1.008 . S
C239 H249 1.083 1_554 S
C240 H250 1.131 . S
C242 H251 1.160 . S
C242 H252 1.145 1_556 S
C243 H253 1.139 . S
C243 H254 1.127 . S
C244 H255 1.078 . S
C244 H256 1.137 . S
C245 H257 1.103 1_556 S
S246 H258 1.398 . S
O259 C260 1.393 1_554 S
C260 C261 1.491 . S
C261 Br262 1.849 . S
C261 C263 1.462 . S
C263 C264 1.476 . S
C264 C265 1.489 . S
C260 C266 1.590 . S
C266 S267 1.808 . S
C266 O268 1.386 . S
O259 H269 1.008 1_554 S
C260 H270 1.083 . S
C261 H271 1.131 . S
C263 H272 1.160 1_556 S
C263 H273 1.145 . S
C264 H274 1.139 . S
C264 H275 1.127 . S
C265 H276 1.078 . S
C265 H277 1.137 . S
C266 H278 1.103 1_556 S
S267 H279 1.398 . S
O280 C281 1.393 . S
C281 C282 1.491 . S
C282 Br283 2.002 . S
C282 C284 1.462 . S
C284 C285 1.476 . S
C285 C286 1.489 . S
C281 C287 1.590 . S
C287 S288 1.808 . S
C287 O289 1.386 . S
O280 H290 1.008 . S
C281 H291 1.083 . S
C282 H292 1.131 . S
C284 H293 1.160 . S
C284 H294 1.145 . S
C285 H295 1.139 . S
C285 H296 1.127 . S
C286 H297 1.078 . S
C286 H298 1.137 . S
C287 H299 1.103 . S
S288 H300 1.398 . S
O301 C302 1.393 1_556 S
C302 C303 1.491 . S
C303 Br304 1.741 . S
C303 C305 1.462 . S
C305 C306 1.476 . S
C306 C307 1.489 . S
C302 C308 1.590 . S
C308 S309 1.808 . S
C308 O310 1.386 . S
O301 H311 1.008 1_556 S
C302 H312 1.083 . S
C303 H313 1.131 . S
C305 H314 1.160 1_554 S
C305 H315 1.145 . S
C306 H316 1.139 . S
C306 H317 1.127 . S
C307 H318 1.078 . S
C307 H319 1.137 . S
C308 H320 1.103 1_554 S
S309 H321 1.398 . S
O322 C323 1.393 . S
C323 C324 1.491 1_554 S
C324 Br325 2.002 . S
C324 C326 1.462 . S
C326 C327 1.476 . S
C327 C328 1.489 . S
C323 C329 1.590 . S
C329 S330 1.300 1_554 S
C329 O331 1.386 . S
O322 H332 1.008 . S
C323 H333 1.083 . S
C324 H334 1.131 . S
C326 H335 1.160 . S
C326 H336 1.145 . S
C327 H337 1.139 . S
C327 H338 1.127 . S
C328 H339 1.078 1_556 S
C328 H340 1.137 . S
C329 H341 1.103 . S
S330 H342 1.398 1_556 S
O343 C344 1.393 . S
C344 C345 1.491 1_554 S
C345 Br346 2.002 . S
C345 C347 1.462 . S
C347 C348 1.476 . S
C348 C349 1.489 1_556 S
C344 C350 1.590 . S
C350 S351 1.284 . S
C350 O352 1.386 . S
O343 H353 1.008 . S
C344 H354 1.083 . S
C345 H355 1.131 . S
C347 H356 1.160 . S
C347 H357 1.145 . S
C348 H358 1.139 . S
C348 H359 1.127 . S
C349 H360 1.078 . S
C349 H361 1.137 . S
C350 H362 1.103 . S
S351 H363 1.398 . S
O364 C365 1.393 1_554 S
C365 C366 1.491 . S
C366 Br367 1.983 . S
C366 C368 1.462 . S
C368 C369 1.476 . S
C369 C370 1.489 . S
C365 C371 1.590 . S
C371 S372 1.808 . S
C371 O373 1.386 . S
O364 H374 1.008 1_554 S
C365 H375 1.083 . S
C366 H376 1.131 . S
C368 H377 1.160 1_556 S
C368 H378 1.145 . S
C369 H379 1.139 . S
C369 H380 1.127 . S
C370 H381 1.078 . S
C370 H382 1.137 . S
C371 H383 1.103 . S
S372 H384 1.398 . S
O385 C386 1.393 1_554 S
C386 C387 1.491 . S
C387 Br388 1.986 . S
C387 C389 1.462 1_556 S
C389 C390 1.476 1_554 S
C390 C391 1.489 . S
C386 C392 1.590 . S
C392 S393 1.808 . S
C392 O394 1.386 . S
O385 H395 1.008 . S
C386 H396 1.083 . S
C387 H397 1.131 . S
C389 H398 1.160 . S
C389 H399 1.145 . S
C390 H400 1.139 . S
C390 H401 1.127 . S
C391 H402 1.078 . S
C391 H403 1.137 1_556 S
C392 H404 1.103 1_556 S
S393 H405 1.398 . S
O406 C407 1.393 . S
C407 C408 1.491 1_554 S
C408 Br409 2.002 . S
C408 C410 1.462 . S
C410 C411 1.476 . S
C411 C412 1.489 . S
C407 C413 1.590 . S
C413 S414 1.249 1_554 S
C413 O415 1.386 . S
O406 H416 1.008 . S
C407 H417 1.083 . S
C408 H418 1.131 . S
C410 H419 1.160 . S
C410 H420 1.145 1_554 S
C411 H421 1.139 . S
C411 H422 1.127 . S
C412 H423 1.078 1_556 S
C412 H424 1.137 . S
C413 H425 1.103 . S
S414 H426 1.398 1_556 S
O427 C428 1.393 1_554 S
C428 C429 1.491 . S
C429 Br430 2.002 1_556 S
C429 C431 1.462 1_556 S
C431 C432 1.476 1_554 S
C432 C433 1.489 . S
C428 C434 1.590 . S
C434 S435 1.808 . S
C434 O436 1.386 . S
O427 H437 1.008 . S
C428 H438 1.083 . S
C429 H439 1.131 . S
C431 H440 1.160 . S
C431 H441 1.145 . S
C432 H442 1.139 . S
C432 H443 1.127 . S
C433 H444 1.078 . S
C433 H445 1.137 1_556 S
C434 H446 1.103 1_556 S
S435 H447 1.398 . S
C118 C2 1.310 . S
O121 C86 1.365 . S
C139 C27 1.345 . S
O142 C3 1.437 . S
C160 C87 1.586 . S
O163 C31 1.382 . S
C181 C44 1.433 . S
O184 C5 1.339 . S
C202 C33 1.428 . S
O205 C61 1.326 . S
C223 C69 1.357 . S
O226 C13 1.218 . S
C244 C45 1.554 . S
O247 C41 1.323 . S
C265 C55 1.402 . S
O268 C73 1.412 . S
C286 C47 1.595 . S
O289 C111 1.210 . S
C307 C19 1.379 . S
O310 C30 1.368 . S
C328 C17 1.418 . S
O331 C100 1.233 1_554 S
C349 C89 1.543 . S
O352 C101 1.248 . S
C370 C83 1.391 . S
O373 C97 1.389 . S
C391 C16 1.353 . S
O394 C75 1.292 . S
C412 C59 1.535 . S
O415 C103 1.545 1_554 S
C433 C58 1.388 . S
O436 C72 1.234 . S
